data_subtitutions
_audit_creation_method    igor
_audit_author_name 'sponge bob'
_cell_length_a    34.4659996
_cell_length_b    34.6759987
_cell_length_c    34.4930000
_cell_angle_alpha    89.2099991
_cell_angle_beta    87.9300003
_cell_angle_gamma    91.6900024
_cell_volume 41174.6953125
_symmetry_space_group_name_hall 'p 1'
_symmetry_space_group_name_h-m 'p 1'
_symmetry_int_tables_number 1
_symmetry_equiv_pos_as_xyz 'x,y,z'
loop_
_atom_site_label
_atom_site_fract_x
_atom_site_fract_y
_atom_site_fract_z
Zn   0.36175537 0.33261871 0.10644531
Zn   0.60653687 0.08416748 0.36109924
Zn   0.35871124 0.10896301 0.37386322
Zn   0.60963440 0.36805725 0.10781097
Zn   0.22227478 0.21864319 0.38627625
Zn   0.47112274 0.47552490 0.12141418
Zn   0.48555756 0.11626434 0.24103546
Zn   0.23701477 0.36219788 0.49040985
Zn   0.49572754 0.22524261 0.10208893
Zn   0.24932861 0.46762848 0.34560394
Zn   0.23267365 0.32556152 0.23860168
Zn   0.47986603 0.07049561 0.49575043
C    0.54645538 0.58921051 0.28841400
N    0.53816223 0.11626434 0.26660156
N    0.58251190 0.10498047 0.31148529
C    0.55551910 0.15065765 0.27617645
C    0.58158112 0.14342499 0.30295563
C    0.52448273 0.55402374 0.30312347
H    0.59903717 0.16278839 0.31209564
H    0.55241394 0.17502594 0.26500702
H    0.53904724 0.53036499 0.29743958
H    0.52033234 0.55612946 0.33063507
H    0.49906921 0.55175018 0.29088593
C    0.30569458 0.33647919 0.53739929
N    0.29199982 0.36186218 0.51100922
N    0.33483124 0.35202026 0.55718994
C    0.31280518 0.39501953 0.51654816
C    0.33913422 0.38929749 0.54352570
C    0.29444885 0.29392242 0.53914642
H    0.35688019 0.40741730 0.55141449
H    0.31025696 0.41752625 0.50265503
H    0.26722717 0.29050446 0.53255463
H    0.31063843 0.27964783 0.52106476
H    0.29776001 0.28356171 0.56504822
C    0.43252563 0.11894989 0.31531525
N    0.43985748 0.12867737 0.27777100
N    0.39514923 0.12357330 0.32651520
C    0.40151215 0.60305023 0.24820709
C    0.37582397 0.59789276 0.27878571
C    0.46292877 0.10723114 0.34272766
H    0.34979248 0.59111786 0.27661133
H    0.39682007 0.59968567 0.22188568
H    0.45256805 0.11077118 0.36895752
H    0.47019958 0.08074188 0.33904266
H    0.48513031 0.12561798 0.33846283
C    0.67756653 0.34953308 0.55780029
N    0.69285583 0.36917877 0.52658081
N    0.64733887 0.36727142 0.57543945
C    0.67079163 0.40184021 0.52481079
C    0.64411163 0.40087891 0.55419922
C    0.69159698 0.31173706 0.57138062
H    0.62619019 0.41913605 0.55852509
H    0.67419434 0.42153931 0.50648499
H    0.69457245 0.31153870 0.59879303
H    0.67413330 0.29225922 0.56406403
H    0.71564484 0.30786896 0.55783081
C    0.29055786 0.32234192 0.16534424
N    0.28133392 0.31143188 0.20285797
N    0.32947540 0.32004547 0.15681458
C    0.31611633 0.29998779 0.21771240
C    0.34475708 0.30604553 0.19043732
C    0.26166534 0.33634949 0.13731384
H    0.37058258 0.30107117 0.19336700
H    0.31954193 0.29114532 0.24237061
H    0.25482178 0.31500244 0.12118530
H    0.76686859 0.35094452 0.11610413
H    0.24141693 0.33979034 0.62957764
C    0.53786469 0.08455658 0.42472076
N    0.52203369 0.06114197 0.45333099
N    0.56591034 0.06715393 0.40345764
C    0.53388214 0.52515411 0.43690491
C    0.55947113 0.52693939 0.40627289
C    0.52445984 0.12510681 0.41778564
H    0.56832123 0.50579071 0.39254761
H    0.52305603 0.50341034 0.44845581
H    0.49697113 0.12542725 0.42167664
H    0.53591919 0.14171600 0.43621063
H    0.53204346 0.13320160 0.39118195
C    0.65955353 0.35953522 0.18068695
N    0.67170715 0.33276367 0.20613861
N    0.63559723 0.34368134 0.15451813
C    0.65534973 0.29852295 0.19397736
C    0.63282013 0.30537415 0.16391754
C    0.67027283 0.40210724 0.18161774
H    0.61762238 0.28722382 0.15045929
H    0.65833282 0.27481842 0.20511627
H    0.65126801 0.41677856 0.19615173
H    0.69532776 0.40536499 0.19339752
H    0.67324066 0.41207886 0.15512848
C    0.41856384 0.58097076 0.43409729
N    0.43165588 0.09485626 0.46974945
N    0.38780212 0.10812378 0.42486572
C    0.42612457 0.13362122 0.46841431
C    0.39921570 0.14122009 0.44207001
C    0.40998077 0.53788757 0.43232727
H    0.39016724 0.16524506 0.43511200
H    0.43792725 0.15196228 0.48278046
H    0.42787170 0.52763367 0.41378784
H    0.41152954 0.52568817 0.45742035
H    0.38378143 0.53363037 0.42399597
C    0.42581940 0.39741516 0.12017059
N    0.42875671 0.43486023 0.13220978
N    0.38863373 0.38347626 0.12458038
C    0.39318085 0.43776703 0.64515686
C    0.36763763 0.40830231 0.63973236
C    0.45940399 0.37345123 0.10974884
H    0.34045410 0.40927887 0.64219666
H    0.38710022 0.46245575 0.65154266
H    0.46605682 0.37797546 0.08271027
H    0.48215485 0.38009644 0.12483978
H    0.45199585 0.34686279 0.11473846
C    0.67868805 0.14363861 0.37638855
N    0.68376160 0.18128204 0.38639832
N    0.64142609 0.13177490 0.38038635
C    0.64762115 0.19361877 0.39713287
C    0.62269592 0.16352844 0.39495850
C    0.71006012 0.11795044 0.36141205
H    0.59658813 0.16460419 0.40217590
H    0.64158630 0.21807098 0.40586090
H    0.73051453 0.13290405 0.34716797
H    0.72038269 0.10496521 0.38303375
H    0.69828033 0.09897614 0.34502411
C    0.23435974 0.28695679 0.44126129
N    0.21585083 0.31211090 0.46490479
N    0.20999908 0.25969696 0.42742157
C    0.69703674 0.27719879 0.47515106
C    0.70041656 0.24372101 0.45617676
C    0.27816010 0.28855133 0.43316650
H    0.68382263 0.22277832 0.45823669
H    0.67689514 0.28311157 0.49296570
H    0.28920746 0.30957794 0.44732666
H    0.28789520 0.26525879 0.44335175
H    0.28366089 0.29080200 0.40566254
C    0.47141266 0.55050659 0.16644287
N    0.46493530 0.56404877 0.20259857
N    0.46216583 0.51300812 0.16415405
C    0.45359802 0.53276825 0.22473145
C    0.45063019 0.50221252 0.20140839
C    0.48247528 0.57548523 0.13195038
H    0.44173431 0.47731018 0.20955658
H    0.44709015 0.53263092 0.25139618
H    0.46878052 0.56544495 0.11021423
H    0.47489166 0.60150146 0.13607025
H    0.51015472 0.57465363 0.12579346
C    0.30290985 0.53836823 0.35511780
N    0.29903412 0.50077820 0.34536743
N    0.34014130 0.54990387 0.35720825
C    0.33673859 0.48839569 0.34191895
C    0.36093903 0.51770020 0.35009766
C    0.26938629 0.56423950 0.35987854
H    0.38747406 0.51673889 0.34893799
H    0.34458923 0.46370697 0.33564758
H    0.25314331 0.55471039 0.38163757
H    0.27959442 0.58973694 0.36414337
H    0.25432587 0.56472015 0.33707428
C    0.54625702 0.30273438 0.10995483
N    0.53498077 0.27174377 0.08903503
N    0.57144165 0.32574463 0.08941650
C    0.54693604 0.26645660 0.55091858
C    0.57259369 0.29597473 0.55484009
C    0.53546906 0.30915070 0.15202332
H    0.58672333 0.30841827 0.53461456
H    0.54022217 0.25627899 0.52684021
H    0.50876617 0.31615448 0.15486908
H    0.53939056 0.28536224 0.16673279
H    0.55100250 0.33097076 0.16156769
C    0.21967316 0.27577209 0.31420898
N    0.23588562 0.28024292 0.27716064
N    0.22395325 0.23998260 0.32843018
C    0.67266083 0.27435303 0.29079437
C    0.67503357 0.25159454 0.32198334
C    0.19802094 0.30621338 0.33535767
H    0.65540314 0.23554993 0.33179474
H    0.65117645 0.27734375 0.27603149
H    0.20825195 0.33150482 0.32830811
H    0.17115784 0.30399323 0.32938385
H    0.19924927 0.30283356 0.36283875
C    0.48690796 0.50547791 0.54961395
N    0.46725464 0.52779388 0.52521515
N    0.46263885 0.48399353 0.57404327
C    0.42861176 0.52056122 0.53589630
C    0.42578125 0.49436951 0.56520081
C    0.52998352 0.50357819 0.54909515
H    0.40375519 0.48561859 0.57738495
H    0.40734100 0.53221130 0.52469635
H    0.54169464 0.52890778 0.55109406
H    0.53722382 0.48760223 0.57001495
H    0.53955078 0.49357605 0.52510071
C    0.42516327 0.27304840 0.57952881
N    0.43971252 0.24050903 0.09820557
N    0.39041901 0.28080750 0.09849548
C    0.41068268 0.22512054 0.12220001
C    0.38171387 0.25013733 0.12387848
C    0.45145416 0.30404663 0.55918884
H    0.35878754 0.24675751 0.13800812
H    0.41190338 0.20211029 0.13694000
H    0.47545624 0.30495453 0.57169342
H    0.45621490 0.29747772 0.53287506
H    0.43912506 0.32839203 0.55904388
C    0.66638947 0.51928711 0.35183716
N    0.69272614 0.50116730 0.32874298
N    0.64337921 0.54269409 0.33170319
C    0.68916321 0.51704407 0.29294586
C    0.65985870 0.54174042 0.29473877
C    0.65963745 0.50965881 0.39422607
H    0.64983368 0.55333710 0.27347565
H    0.70278168 0.51053619 0.27048492
H    0.64896393 0.48394775 0.39678192
H    0.68433380 0.51046753 0.40600586
H    0.64244080 0.52832794 0.40606689
C    0.50574493 0.17233276 0.17404938
N    0.49527740 0.20653534 0.15936279
N    0.48786926 0.16520691 0.20921326
C    0.47173309 0.22248077 0.18744659
C    0.46720123 0.19742584 0.21742249
C    0.53620911 0.14780426 0.15475464
H    0.45245361 0.20101929 0.23987579
H    0.45881653 0.24574280 0.18501282
H    0.55723572 0.16384888 0.14482880
H    0.54575348 0.13022614 0.17317200
H    0.52510071 0.13301849 0.13455963
C    0.73258972 0.40574646 0.41346741
N    0.25036621 0.44493866 0.40104675
N    0.23286438 0.41064453 0.45484161
C    0.25812531 0.46726227 0.43249512
C    0.24661255 0.44618225 0.46490479
C    0.71957397 0.37241364 0.38894653
H    0.24868774 0.45481873 0.48991394
H    0.26969910 0.49199677 0.43218231
H    0.74139404 0.36435699 0.37348175
H    0.70882416 0.35125732 0.40493774
H    0.69928741 0.38071442 0.37191772
C    0.28845215 0.16317749 0.39541626
N    0.27659607 0.19926453 0.38952637
N    0.32362366 0.15659332 0.37789154
C    0.30706787 0.21733856 0.36953735
C    0.33495331 0.19182587 0.36222839
C    0.26663971 0.13409424 0.42048645
H    0.35708618 0.19601440 0.34818268
H    0.30769348 0.24259186 0.36109924
H    0.26177216 0.14398193 0.44445038
H    0.24219513 0.12837219 0.40975189
H    0.28126526 0.11145020 0.42254639
C    0.54541016 0.40818024 0.61074829
N    0.52565765 0.45345306 0.13162994
N    0.57563782 0.41330719 0.12631989
C    0.53688049 0.44353485 0.16789246
C    0.56649017 0.41941071 0.16441345
C    0.53582764 0.39863586 0.56946564
H    0.58012390 0.41050720 0.18538666
H    0.52721405 0.45364380 0.19069672
H    0.53208160 0.37110901 0.56784058
H    0.51409149 0.41181946 0.56182861
H    0.55657196 0.40667725 0.55281067
C    0.47876740 0.13638306 0.55368042
N    0.49881744 0.11222839 0.52907562
N    0.49925995 0.16953278 0.55968475
C    0.53269958 0.13267517 0.51943970
C    0.53263855 0.16648102 0.53757477
C    0.43946838 0.12606049 0.57285309
H    0.55210876 0.18544006 0.53548431
H    0.55238342 0.12502289 0.50331879
H    0.41875458 0.13529205 0.55718994
H    0.43688965 0.09896088 0.57543945
H    0.43787384 0.13630676 0.59803772
C    0.72313690 0.40402222 0.28427124
N    0.25279999 0.37562561 0.26158142
N    0.25946808 0.42787170 0.30057526
C    0.29099274 0.38440704 0.26441956
C    0.29616547 0.41539001 0.28800964
C    0.68003845 0.40926361 0.28659058
H    0.31978607 0.42497253 0.29566956
H    0.31179810 0.37024689 0.25435638
H    0.67358398 0.43032837 0.27120972
H    0.66728210 0.38690948 0.27680969
H    0.67127991 0.41454315 0.31240845
Zn   0.36050415 0.33079529 0.60331726
Zn   0.60362244 0.08184052 0.86502075
Zn   0.36137390 0.10667419 0.87535095
Zn   0.60801697 0.34659576 0.61567688
Zn   0.22551727 0.21704865 0.87561035
Zn   0.47544861 0.45925903 0.62566376
Zn   0.48569489 0.10684967 0.73841095
Zn   0.22937775 0.35142517 0.99372864
Zn   0.48854828 0.21353912 0.59600830
Zn   0.24200439 0.46497345 0.85167694
Zn   0.23480988 0.33128357 0.73637390
Zn   0.48097229 0.08360291 0.00164795
C    0.54666138 0.58419037 0.79866791
N    0.53439331 0.11203766 0.77021027
N    0.57460022 0.10456085 0.81892395
C    0.55172729 0.14691925 0.77766418
C    0.57551575 0.14212036 0.80754852
C    0.52021790 0.56362152 0.82791138
H    0.59056854 0.16213989 0.81941223
H    0.54722595 0.16936493 0.76414490
H    0.49600983 0.55561829 0.81674194
H    0.53380585 0.54220581 0.83815765
H    0.51492310 0.58056641 0.84860229
C    0.29863739 0.33160400 0.04255676
N    0.28192902 0.35601044 0.01743317
N    0.32781219 0.34954071 0.06234741
C    0.29973602 0.39102173 0.02390289
C    0.32626343 0.38711548 0.05027771
C    0.29067230 0.28897095 0.04560089
H    0.34284210 0.40634918 0.05839539
H    0.29465485 0.41355133 0.01049805
H    0.26580811 0.28292847 0.03672791
H    0.30830383 0.27677155 0.02790833
H    0.29370117 0.27929688 0.07197571
C    0.42966461 0.11308289 0.81253815
N    0.43639374 0.11034393 0.77336884
N    0.39237976 0.10374451 0.82341766
C    0.40250397 0.56703949 0.75848389
C    0.37449646 0.57116699 0.78555298
C    0.46091461 0.12424469 0.84004211
H    0.35057831 0.55794525 0.78610229
H    0.40135956 0.55152893 0.73661041
H    0.48282623 0.13737488 0.82597351
H    0.45073700 0.14022064 0.86026764
H    0.46978760 0.10202026 0.85248566
C    0.67579651 0.35826111 0.04653168
N    0.69605255 0.37738037 0.01804352
N    0.64719391 0.37966156 0.06240082
C    0.67986298 0.41220856 0.01525116
C    0.65119934 0.41432953 0.04191589
C    0.68535614 0.31842041 0.05998993
H    0.63603973 0.43521881 0.04577637
H    0.68784332 0.43223572 0.99787903
H    0.66464233 0.30100250 0.05364227
H    0.70994568 0.31015015 0.04954529
H    0.68657684 0.31793976 0.08851624
C    0.28820038 0.32862854 0.66010284
N    0.27796936 0.31546021 0.69639587
N    0.32173157 0.31295776 0.64678192
C    0.30757904 0.29296875 0.70713043
C    0.33399963 0.29107666 0.67710114
C    0.26326752 0.35461426 0.63770294
H    0.35655212 0.27746582 0.67684174
H    0.30943298 0.27912140 0.73048401
H    0.25444031 0.37622070 0.65316772
H    0.73992920 0.33867645 0.64402771
H    0.27326965 0.35668182 0.12181854
C    0.53968048 0.08695221 0.93096924
N    0.52154541 0.06684875 0.96175385
N    0.56537628 0.06532288 0.91109467
C    0.53808594 0.52978516 0.94063568
C    0.56720734 0.52859497 0.91353607
C    0.53227997 0.12863922 0.91942596
H    0.57868958 0.50723267 0.90311432
H    0.52587891 0.50835419 0.95401001
H    0.50434875 0.13273621 0.91770935
H    0.54227448 0.14525604 0.93903351
H    0.54529572 0.13526154 0.89479065
C    0.66543579 0.34657288 0.68386078
N    0.68087769 0.32250214 0.70971680
N    0.64180756 0.32685852 0.65911102
C    0.66536713 0.28675842 0.70167542
C    0.64230347 0.28937531 0.67098236
C    0.67181396 0.38921356 0.68366241
H    0.62977600 0.26937866 0.65981293
H    0.66962433 0.26431274 0.71551514
H    0.66384125 0.39889526 0.70825958
H    0.69917297 0.39543915 0.67835236
H    0.65673828 0.40047455 0.66372681
C    0.42549896 0.59173584 0.91884613
N    0.43630219 0.10359955 0.97182465
N    0.39753723 0.11288452 0.92171478
C    0.43238068 0.14200592 0.96584320
C    0.40809631 0.14807892 0.93717957
C    0.43510437 0.55496216 0.89826965
H    0.39889526 0.17266083 0.92929077
H    0.44263458 0.16122437 0.98127747
H    0.41652679 0.54988098 0.87915039
H    0.46067047 0.55663300 0.88669586
H    0.43367004 0.53497314 0.91748047
C    0.42545319 0.38684082 0.63358307
N    0.42996216 0.42502594 0.64057159
N    0.38751221 0.37582397 0.63149261
C    0.39237213 0.44416809 0.14474487
C    0.36817932 0.41319275 0.13998413
C    0.45895386 0.35964203 0.63326263
H    0.34149933 0.41255188 0.14636993
H    0.38511658 0.46758270 0.15521240
H    0.47370911 0.36193085 0.60909271
H    0.47503662 0.36662292 0.65482330
H    0.44851685 0.33356476 0.63651276
C    0.66712189 0.14810181 0.86354065
N    0.68166351 0.17662048 0.88608551
N    0.64160919 0.12385559 0.88420105
C    0.66450500 0.16954041 0.92226410
C    0.64053345 0.13840485 0.92026520
C    0.67832184 0.14282227 0.82077789
H    0.62509155 0.12834930 0.94092560
H    0.66881561 0.18444061 0.94458008
H    0.66759491 0.11874390 0.81204224
H    0.66767120 0.16303253 0.80606842
H    0.70657349 0.14295197 0.81790161
C    0.23738098 0.27854156 0.94144440
N    0.21572113 0.30077362 0.96572876
N    0.21495056 0.25070953 0.92340088
C    0.68257141 0.30044556 0.95455933
C    0.67919922 0.27023315 0.93146515
C    0.28139496 0.28205872 0.93552399
H    0.65570831 0.25995636 0.92203522
H    0.66223907 0.31466675 0.96447754
H    0.29129028 0.30667114 0.94519043
H    0.29216003 0.26208496 0.95023346
H    0.28871155 0.27936554 0.90900421
C    0.47562408 0.53147125 0.67457581
N    0.48256683 0.54246521 0.71150970
N    0.46900940 0.49330902 0.67193604
C    0.47801971 0.50942230 0.73376465
C    0.47059631 0.47959137 0.70983124
C    0.47291565 0.55869293 0.64025879
H    0.46524048 0.45443726 0.71772003
H    0.47986603 0.50870514 0.76063538
H    0.45226288 0.55004120 0.62423706
H    0.46900940 0.58448029 0.64840698
H    0.49713135 0.55821228 0.62574768
C    0.29460907 0.53917694 0.85588074
N    0.28855896 0.50099945 0.86406708
N    0.32494354 0.55477905 0.87538147
C    0.31774139 0.49185181 0.88782501
C    0.33813477 0.52440643 0.89653015
C    0.26998138 0.56069946 0.82846832
H    0.35903168 0.52603912 0.91304016
H    0.32081604 0.46709442 0.89971924
H    0.27378082 0.55010223 0.80377197
H    0.24274445 0.55831146 0.83580780
H    0.27775574 0.58760834 0.82724762
C    0.55029297 0.27697754 0.61196899
N    0.53327942 0.25337982 0.58654785
N    0.57572174 0.30303192 0.59447479
C    0.55188751 0.27766418 0.05326080
C    0.57485962 0.30895996 0.05413055
C    0.54273987 0.27402496 0.65551758
H    0.59072113 0.31913757 0.03315735
H    0.54936218 0.26092529 0.03225708
H    0.55224609 0.25031281 0.66514587
H    0.55615234 0.29515076 0.66706085
H    0.51481628 0.27593231 0.66146088
C    0.23576355 0.27803040 0.80995178
N    0.23382568 0.28137970 0.77079010
N    0.22015381 0.24436188 0.82391357
C    0.74257660 0.24590302 0.76034546
C    0.73511505 0.22185516 0.79057312
C    0.25652313 0.30683136 0.83473206
H    0.73585510 0.19493866 0.78891754
H    0.74936676 0.23876190 0.73611450
H    0.24556732 0.30366516 0.85985565
H    0.28383636 0.30235291 0.83560181
H    0.25205994 0.33218384 0.82576752
C    0.48542786 0.52371979 0.04647064
N    0.46665192 0.53990173 0.01725769
N    0.46251678 0.49836731 0.06753540
C    0.42931366 0.52514648 0.02027130
C    0.42701721 0.50039673 0.05111694
C    0.52864075 0.52983856 0.05192566
H    0.40556335 0.48501587 0.05900574
H    0.40922546 0.53028870 0.00405884
H    0.53451538 0.52007294 0.07647705
H    0.54241180 0.51766205 0.03269196
H    0.53634644 0.55622864 0.05056763
C    0.42631531 0.27339935 0.08410645
N    0.43460846 0.23596191 0.58396912
N    0.38852692 0.27887726 0.59290314
C    0.40087128 0.21753693 0.59673309
C    0.37268829 0.24292755 0.60276794
C    0.44779968 0.29835510 0.05285645
H    0.34806824 0.23761749 0.61245728
H    0.39837646 0.19118500 0.60169983
H    0.47309113 0.30500793 0.06182098
H    0.45095825 0.28503418 0.02912140
H    0.43366241 0.32159424 0.04818726
C    0.67463684 0.51584625 0.85504150
N    0.69760895 0.49607086 0.83069611
N    0.64968872 0.53836060 0.83650208
C    0.68846893 0.50872040 0.79472351
C    0.65998077 0.53440094 0.79811859
C    0.67457581 0.50993347 0.89778137
H    0.64933014 0.54774475 0.77783966
H    0.70030975 0.50190735 0.77127838
H    0.66188812 0.48512268 0.90383911
H    0.70121002 0.51135254 0.90541077
H    0.66032410 0.52961731 0.91083527
C    0.50036621 0.16712189 0.67002106
N    0.48268890 0.19603729 0.65217590
N    0.47914886 0.15311432 0.70214081
C    0.45007324 0.20199585 0.67417145
C    0.44747162 0.17602539 0.70384979
C    0.53790283 0.15140533 0.65569305
H    0.42748260 0.17406464 0.72314453
H    0.43052673 0.21944427 0.66886139
H    0.55760956 0.17108917 0.65725708
H    0.54353333 0.13009644 0.67278290
H    0.53597260 0.14337158 0.62943268
C    0.73420715 0.41629028 0.91506958
N    0.24073029 0.44113922 0.90668488
N    0.22674561 0.40239716 0.95919800
C    0.24309540 0.46187592 0.94013977
C    0.23477936 0.43881989 0.97161865
C    0.69283295 0.40615845 0.90755463
H    0.23447418 0.44677734 0.99775696
H    0.25087738 0.48812866 0.94068909
H    0.68350220 0.42109680 0.88652039
H    0.69122314 0.37886810 0.90169525
H    0.67715454 0.41174316 0.93013000
C    0.29997253 0.16923523 0.88823700
N    0.27992249 0.19455719 0.86737061
N    0.32992554 0.15538025 0.86696625
C    0.29722595 0.19531250 0.83165741
C    0.32778168 0.17315674 0.83183289
C    0.29269409 0.15998077 0.93038940
H    0.34443665 0.16882324 0.81050873
H    0.28948975 0.21062469 0.81099701
H    0.31636047 0.15689087 0.94248962
H    0.27894592 0.18077850 0.94257355
H    0.27838135 0.13639832 0.93297577
C    0.54896545 0.43300629 0.10737610
N    0.52725983 0.43539429 0.63198853
N    0.57145691 0.38905334 0.63224792
C    0.54425812 0.43480682 0.66770172
C    0.57012177 0.40652466 0.66819763
C    0.54728699 0.43391418 0.06381989
H    0.58690643 0.40051270 0.68844604
H    0.53686523 0.44938660 0.68827057
H    0.56661987 0.45292664 0.05364227
H    0.55323029 0.40872955 0.05375671
H    0.52110291 0.44058990 0.05697632
C    0.48566437 0.15042877 0.05738068
N    0.50409698 0.12514496 0.03481293
N    0.50863647 0.18026733 0.06690216
C    0.54130554 0.13989258 0.03063202
C    0.54364777 0.17301941 0.04983521
C    0.44391632 0.14559174 0.07026672
H    0.56605530 0.19017792 0.05015564
H    0.56121063 0.12979889 0.01658630
H    0.43078613 0.16934204 0.06614685
H    0.43234253 0.12500763 0.05558014
H    0.44305420 0.13883209 0.09664154
C    0.73409271 0.40304565 0.78059387
N    0.25367737 0.37982178 0.76472473
N    0.25618744 0.42755890 0.80832672
C    0.29186249 0.39035034 0.77075958
C    0.29296112 0.41951752 0.79646301
C    0.69084930 0.39951324 0.78920746
H    0.31414032 0.43301392 0.80447388
H    0.31304169 0.37985992 0.75819397
H    0.67918396 0.42372894 0.78276825
H    0.67984772 0.37887573 0.77412415
H    0.68608093 0.39481354 0.81616211
Zn   0.35486603 0.83551025 0.11285400
Zn   0.60605621 0.58382416 0.35210419
Zn   0.36579895 0.60329437 0.36628723
Zn   0.60543823 0.86157227 0.12371063
Zn   0.22956848 0.71620941 0.37818146
Zn   0.46487427 0.97033691 0.13954926
Zn   0.48673248 0.61251831 0.22606659
Zn   0.24613190 0.85575104 0.48632050
Zn   0.48749542 0.72612000 0.09037018
Zn   0.24913025 0.96829987 0.34165955
Zn   0.22703552 0.83022308 0.23836517
Zn   0.48675537 0.57427979 0.49018097
C    0.55442810 0.08949280 0.28989410
N    0.53695679 0.61093140 0.25763702
N    0.57874298 0.60324860 0.30495453
C    0.56606293 0.63871765 0.25313568
C    0.59126282 0.63420105 0.28189087
C    0.54387665 0.04691315 0.28931427
H    0.61283112 0.65054321 0.28688049
H    0.56661224 0.65738678 0.23384094
H    0.53855896 0.04000854 0.26285553
H    0.56542206 0.03147125 0.29779053
H    0.52039337 0.04171753 0.30538940
C    0.31041718 0.83290863 0.54328918
N    0.29338837 0.85977173 0.52191162
N    0.33430481 0.84821320 0.56998444
C    0.30664062 0.89435577 0.53609467
C    0.33023071 0.88728333 0.56539917
C    0.30497742 0.79079437 0.53720093
H    0.34331512 0.90577698 0.57917786
H    0.30091858 0.91950226 0.52719116
H    0.32740784 0.78159332 0.52312469
H    0.30209351 0.77931213 0.56255341
H    0.28125000 0.78482819 0.52324677
C    0.43142700 0.61587524 0.29964447
N    0.43737030 0.61417389 0.26062012
N    0.39439392 0.60585785 0.31174469
C    0.40419769 0.13877106 0.26451111
C    0.37801361 0.13507843 0.29386902
C    0.46280670 0.62918854 0.32616425
H    0.35189056 0.14051056 0.29311371
H    0.39936066 0.14641571 0.23912048
H    0.47171021 0.60653687 0.33817291
H    0.48471069 0.64211273 0.31269836
H    0.45236969 0.64543152 0.34560394
C    0.67045593 0.84355164 0.56726074
N    0.68278503 0.86141205 0.53363037
N    0.64138794 0.86399841 0.58538818
C    0.65851593 0.89125824 0.52890015
C    0.63480377 0.89339447 0.55982971
C    0.68578339 0.80646515 0.58153534
H    0.61724091 0.91295624 0.56409454
H    0.66024780 0.90897369 0.50833893
H    0.71321869 0.80679321 0.57888794
H    0.67813873 0.80110931 0.60802460
H    0.67447662 0.78561401 0.56734467
C    0.28213501 0.82850647 0.16711426
N    0.26943970 0.81246948 0.20175171
N    0.31618500 0.81352997 0.15347290
C    0.29962158 0.78832245 0.21132660
C    0.32632446 0.78869629 0.18245697
C    0.26044464 0.85743713 0.14404297
H    0.34803772 0.77411652 0.18080902
H    0.30041504 0.77359772 0.23366547
H    0.27298737 0.86175537 0.11915588
H    0.73432159 0.84709167 0.15106964
H    0.26420593 0.84077454 0.61617279
C    0.54799652 0.58481598 0.42356110
N    0.52756500 0.56204987 0.44932556
N    0.56893921 0.56477356 0.39774323
C    0.54100800 0.02742004 0.44897461
C    0.56779480 0.03131104 0.41982269
C    0.54870605 0.62931061 0.42527771
H    0.58599854 0.01217651 0.41253662
H    0.53846741 0.00601196 0.46475983
H    0.53044891 0.63894653 0.44462585
H    0.57481384 0.63637543 0.43128204
H    0.54282379 0.63899994 0.40014648
C    0.66195679 0.85424805 0.18991852
N    0.67276001 0.82891083 0.21771240
N    0.63396454 0.83887482 0.16821289
C    0.64745331 0.79775238 0.21399689
C    0.62503815 0.80383301 0.18501282
C    0.68016052 0.89442444 0.18486786
H    0.60626984 0.78688049 0.17656708
H    0.64731598 0.77510834 0.22888184
H    0.66033936 0.91275024 0.19040680
H    0.70069122 0.89808655 0.20250702
H    0.68920898 0.89965057 0.15956879
C    0.40872955 0.08073425 0.44137573
N    0.44361115 0.59837341 0.45872498
N    0.39808655 0.60791779 0.41433716
C    0.44028473 0.63752747 0.45272064
C    0.41287994 0.64336395 0.42669678
C    0.40441895 0.03837585 0.43203735
H    0.40293884 0.66731262 0.41871643
H    0.45471191 0.65690613 0.46516418
H    0.42506409 0.03053284 0.41384125
H    0.40591431 0.02281952 0.45565033
H    0.38011169 0.03308105 0.42095184
C    0.41661835 0.89498138 0.14540863
N    0.41912079 0.93299103 0.15219879
N    0.37937164 0.88220978 0.14262390
C    0.38642883 0.92740631 0.66590118
C    0.36328125 0.89661407 0.66053772
C    0.45083618 0.86938477 0.14566803
H    0.33670044 0.89522552 0.66442108
H    0.37929535 0.95149231 0.67585754
H    0.46784210 0.87495422 0.12216949
H    0.46569824 0.87409210 0.16870880
H    0.44171906 0.84306335 0.14842987
C    0.66839600 0.64188385 0.38088226
N    0.67481995 0.68064117 0.38587189
N    0.63330841 0.63463593 0.36559296
C    0.64072418 0.69721222 0.37702179
C    0.61597443 0.66990662 0.36428833
C    0.69496918 0.61154938 0.39292145
H    0.59196472 0.67470551 0.35430908
H    0.63652039 0.72270966 0.37774658
H    0.68918610 0.60535431 0.42013550
H    0.69202423 0.58901978 0.37731171
H    0.72073364 0.62013245 0.39037323
C    0.24558258 0.77641296 0.44116974
N    0.22804260 0.80308533 0.46353912
N    0.21990204 0.75122070 0.42623138
C    0.67882538 0.78485107 0.46963501
C    0.67848206 0.75457001 0.44561005
C    0.28890228 0.77385712 0.43670654
H    0.65692139 0.74002075 0.44015503
H    0.65747833 0.79376221 0.48332977
H    0.29615021 0.74703217 0.43418121
H    0.29811096 0.78775024 0.41416168
H    0.30036163 0.78404999 0.45954132
C    0.46540833 0.04958344 0.18103790
N    0.46393585 0.06479645 0.21750641
N    0.45352173 0.01185608 0.18034363
C    0.44995880 0.03462219 0.24066162
C    0.44335938 0.00381470 0.21895599
C    0.47319794 0.07320404 0.14474487
H    0.43361664 0.97961426 0.22853088
H    0.44555664 0.03619385 0.26729584
H    0.45717621 0.06362152 0.12564850
H    0.46659851 0.10021210 0.15031433
H    0.49989319 0.07180023 0.13618469
C    0.29889679 0.04358673 0.34864807
N    0.29782104 0.00580597 0.33785248
N    0.33509827 0.05692291 0.35593414
C    0.33657074 0.99620056 0.33591461
C    0.35871124 0.02678680 0.34560394
C    0.26357269 0.06846619 0.35175323
H    0.38587189 0.02752686 0.34626770
H    0.34603882 0.97171783 0.32917786
H    0.24905396 0.06641388 0.32877350
H    0.24745941 0.06044006 0.37374878
H    0.27160645 0.09477234 0.35421753
C    0.54536438 0.79354095 0.11244965
N    0.53279114 0.76856995 0.08573151
N    0.57427979 0.81751251 0.09701538
C    0.54543304 0.76292419 0.55870056
C    0.57123566 0.79228973 0.56490326
C    0.52984619 0.79533386 0.15312958
H    0.58765411 0.80421448 0.54677582
H    0.54262543 0.75122070 0.53461456
H    0.53940582 0.77505493 0.16818237
H    0.53837585 0.81987000 0.16354370
H    0.50197601 0.79366302 0.15298462
C    0.22698212 0.77926636 0.31452942
N    0.22438049 0.78215027 0.27561951
N    0.21734619 0.74358368 0.32775879
C    0.70587921 0.74230194 0.26822662
C    0.69833374 0.72117615 0.29999542
C    0.23725891 0.81190491 0.33936310
H    0.68669128 0.69671631 0.30167389
H    0.69945526 0.73474121 0.24324036
H    0.24842834 0.80319214 0.36280823
H    0.25669861 0.82881927 0.32520294
H    0.21369934 0.82608032 0.34458923
C    0.47999573 0.00222778 0.55974579
N    0.45977783 0.02565765 0.53618622
N    0.45600128 0.98263550 0.58524323
C    0.42160797 0.02039337 0.54830933
C    0.41927338 0.99434662 0.57723999
C    0.52230835 0.99597168 0.55513000
H    0.39736938 0.98526764 0.59052277
H    0.40119171 0.03267670 0.53739929
H    0.53362274 0.99164581 0.58049011
H    0.52630615 0.97434235 0.53908539
H    0.53594208 0.01814270 0.54277039
C    0.41770172 0.76653290 0.58782959
N    0.43332672 0.74652863 0.08369446
N    0.38674927 0.78782654 0.10267639
C    0.40112305 0.72633362 0.09765625
C    0.37329102 0.75080872 0.10839081
C    0.43934631 0.79631042 0.56403351
H    0.34895325 0.74392700 0.11932373
H    0.39908600 0.69945526 0.10058594
H    0.46174622 0.80539703 0.57778931
H    0.44819641 0.78508759 0.54042053
H    0.42298889 0.81736755 0.55867004
C    0.66789246 0.01775360 0.36530304
N    0.68965912 0.99561310 0.34220886
N    0.64322662 0.03963470 0.34484863
C    0.67896271 0.00483704 0.30617523
C    0.65181732 0.03118134 0.30747986
C    0.67106628 0.01924133 0.40882111
H    0.64182281 0.04295349 0.28618622
H    0.69000244 0.99600220 0.28322601
H    0.69774628 0.02387238 0.41546631
H    0.65554810 0.03926086 0.41877747
H    0.66272736 0.99466705 0.42019653
C    0.50163269 0.67360687 0.16101837
N    0.48451996 0.70471191 0.14537811
N    0.48297882 0.66149139 0.19435883
C    0.45441437 0.71177673 0.17102814
C    0.45246887 0.68530273 0.19908142
C    0.53935242 0.65762329 0.14550018
H    0.43482208 0.68357849 0.22029114
H    0.43698120 0.73136902 0.16853333
H    0.54671478 0.63701630 0.16154480
H    0.53598022 0.64823151 0.11938477
H    0.55931854 0.67758942 0.14561462
C    0.72637939 0.90541840 0.42510223
N    0.25834656 0.93766785 0.39231110
N    0.25898743 0.89546204 0.44268036
C    0.29257202 0.94251251 0.41178131
C    0.29309082 0.91737366 0.44178009
C    0.71672821 0.87364960 0.39779663
H    0.31364441 0.91559601 0.45861053
H    0.31230927 0.96155548 0.40560150
H    0.69014740 0.87480927 0.39170837
H    0.73185730 0.87708282 0.37452698
H    0.72013092 0.84899902 0.41027069
C    0.30450439 0.66521454 0.38149261
N    0.28205109 0.69027710 0.36257935
N    0.33232117 0.65094757 0.35871887
C    0.29761505 0.69165802 0.32572937
C    0.32832336 0.66889954 0.32349396
C    0.30068970 0.65591431 0.42318726
H    0.34353638 0.66468048 0.30046082
H    0.28791046 0.70574188 0.30556488
H    0.28223419 0.67278290 0.43548584
H    0.29249573 0.62886047 0.42623138
H    0.32600403 0.65953827 0.43545532
C    0.53810883 0.90866089 0.62412262
N    0.51881409 0.94551849 0.14810944
N    0.56745148 0.90314484 0.14355469
C    0.53419495 0.94036865 0.18391418
C    0.56395721 0.91638184 0.18118286
C    0.53143311 0.90288544 0.58176422
H    0.57909393 0.90918732 0.20131683
H    0.52559662 0.95319366 0.20665741
H    0.53046417 0.87538147 0.57639313
H    0.50699615 0.91316223 0.57520294
H    0.55197144 0.91488647 0.56604004
C    0.48065948 0.63948822 0.54767609
N    0.50291443 0.61812592 0.52307129
N    0.50113678 0.67020416 0.56197357
C    0.53829193 0.63615417 0.52312469
C    0.53734589 0.66705322 0.54656982
C    0.43896484 0.63002014 0.55762482
H    0.55910492 0.68276215 0.55150604
H    0.56095123 0.62869263 0.50813293
H    0.42327881 0.64945221 0.54692078
H    0.43191528 0.60593414 0.54750061
H    0.43524170 0.62916565 0.58443451
C    0.72422791 0.90019989 0.29407501
N    0.24905396 0.88112640 0.25708008
N    0.25727081 0.93184662 0.29607391
C    0.28868103 0.88832855 0.26146698
C    0.29326630 0.91950989 0.28374481
C    0.68069458 0.90396118 0.29512024
H    0.31797028 0.93138885 0.29010010
H    0.30826569 0.87463379 0.24942017
H    0.67321777 0.91576385 0.27149963
H    0.66756439 0.87902832 0.29914856
H    0.67308044 0.92017365 0.31679535
Zn   0.35694885 0.82303619 0.61803436
Zn   0.61522675 0.58086395 0.85602570
Zn   0.35666656 0.60469055 0.86566162
Zn   0.60076141 0.84584045 0.62685394
Zn   0.22027588 0.71863556 0.88272095
Zn   0.46785736 0.95858002 0.63738251
Zn   0.48593140 0.59518433 0.73632050
Zn   0.23453522 0.85906219 0.98722839
Zn   0.48472595 0.71100616 0.60079956
Zn   0.24423981 0.97038269 0.84378815
Zn   0.22263336 0.82963562 0.73928070
Zn   0.48368073 0.58421326 0.98232269
C    0.54902649 0.08678436 0.79576874
N    0.53629303 0.60153198 0.76509857
N    0.58475494 0.59156036 0.80554199
C    0.56982422 0.61595154 0.74832916
C    0.59925079 0.61122894 0.77299500
C    0.53903961 0.04483795 0.79779816
H    0.62520599 0.61983490 0.76852417
H    0.57262421 0.62841797 0.72442627
H    0.53559113 0.03537750 0.77217865
H    0.55995178 0.03154755 0.80856323
H    0.51494598 0.04032135 0.81274414
C    0.30023193 0.83878326 0.04177094
N    0.28507996 0.86431885 0.01635742
N    0.32663727 0.85649872 0.06504059
C    0.30142975 0.89894867 0.02511597
C    0.32641602 0.89463806 0.05352020
C    0.28859711 0.79621887 0.04453278
H    0.34085083 0.91442108 0.06379700
H    0.29692078 0.92252350 0.01336670
H    0.28453827 0.78816986 0.07145691
H    0.26422882 0.79187012 0.03196716
H    0.30839539 0.78129578 0.03124237
C    0.42276001 0.60656738 0.80127716
N    0.43430328 0.58870697 0.76831818
N    0.38660431 0.59504700 0.81363678
C    0.39986420 0.10063934 0.76063538
C    0.37461853 0.09607697 0.78990936
C    0.44811249 0.63388062 0.82158661
H    0.34892273 0.08916473 0.78720856
H    0.39419556 0.09756470 0.73440552
H    0.44865417 0.62468719 0.84790802
H    0.47379303 0.63560486 0.81001282
H    0.43756104 0.65958405 0.82147217
C    0.67480469 0.85726166 0.06408691
N    0.68956757 0.87380219 0.03042603
N    0.64530182 0.87774658 0.07992554
C    0.66773224 0.90533447 0.02465820
C    0.64120483 0.90775299 0.05416107
C    0.68994141 0.82160187 0.08163452
H    0.62358856 0.92749023 0.05778503
H    0.67086029 0.92118835 0.00411224
H    0.67435455 0.81494904 0.10435486
H    0.68867493 0.80059814 0.06411743
H    0.71576691 0.82624817 0.08779144
C    0.27899933 0.81890869 0.66897583
N    0.26799774 0.80831909 0.70600128
N    0.31326294 0.80416107 0.65769196
C    0.29588318 0.78511810 0.71818542
C    0.32367706 0.78306580 0.68926239
C    0.25504303 0.84269714 0.64234161
H    0.34683990 0.76893616 0.69036102
H    0.29728699 0.77392578 0.74330902
H    0.22891235 0.83349609 0.64251709
H    0.77457428 0.85496521 0.61869812
H    0.26075745 0.88086700 0.15773773
C    0.55391693 0.58775330 0.92267609
N    0.53002930 0.56698608 0.94768524
N    0.57746124 0.56549835 0.90169525
C    0.53649139 0.03033447 0.95903015
C    0.56359863 0.02985382 0.92943573
C    0.55239868 0.63063812 0.91567993
H    0.57711792 0.00795746 0.92119598
H    0.52858734 0.00940704 0.97518921
H    0.55036163 0.63525391 0.88843536
H    0.52993774 0.64095306 0.92835999
H    0.57539368 0.64327240 0.92400360
C    0.65993500 0.84552765 0.69288635
N    0.67588806 0.82247925 0.71989441
N    0.62924194 0.82895660 0.67600250
C    0.65355682 0.78929138 0.71891022
C    0.62525940 0.79311371 0.69253540
C    0.67459106 0.88627625 0.68453217
H    0.60749817 0.77453613 0.68627167
H    0.65711975 0.76763916 0.73324585
H    0.65614319 0.90492249 0.69166565
H    0.69731903 0.89093018 0.69929504
H    0.68119812 0.88955688 0.65769196
C    0.41473389 0.08638000 0.94440460
N    0.44562531 0.60847473 0.94733429
N    0.39488983 0.61380768 0.90880585
C    0.42830658 0.64203644 0.95467377
C    0.39726257 0.64471436 0.93193054
C    0.40937805 0.04421997 0.93923950
H    0.38065338 0.66471863 0.93117523
H    0.43673706 0.66134644 0.97161865
H    0.42195892 0.03672028 0.91564941
H    0.41886902 0.03073883 0.96096802
H    0.38278961 0.03852081 0.93804932
C    0.42133331 0.88012695 0.64550781
N    0.42433167 0.91765594 0.65606689
N    0.38405609 0.86638641 0.64785767
C    0.38182831 0.94405365 0.15512848
C    0.35789490 0.91294861 0.14955902
C    0.45578766 0.85537720 0.63767242
H    0.33058929 0.91271210 0.15036774
H    0.37370300 0.96838379 0.16064453
H    0.46499634 0.86106873 0.61158752
H    0.47703552 0.86121368 0.65429688
H    0.44757843 0.82848358 0.63970184
C    0.67098999 0.64585876 0.87979126
N    0.67555237 0.68519592 0.88051605
N    0.63882446 0.63453674 0.86125183
C    0.64456940 0.69808960 0.86125183
C    0.62131500 0.66765594 0.85124207
C    0.69889832 0.61968231 0.89775085
H    0.59841919 0.66959381 0.83751678
H    0.63955688 0.72342682 0.85698700
H    0.69589996 0.59383392 0.88788605
H    0.72463989 0.63004303 0.89389038
H    0.69419098 0.61869812 0.92522430
C    0.23753357 0.78166962 0.94515991
N    0.21839142 0.80573273 0.96865845
N    0.21492767 0.75169373 0.93349457
C    0.68119049 0.79372406 0.96923828
C    0.67886353 0.76332092 0.94527435
C    0.28141022 0.78592682 0.93624878
H    0.65576172 0.75050354 0.93990326
H    0.66076660 0.80560303 0.98148346
H    0.29479218 0.78121948 0.96027374
H    0.28943634 0.76780701 0.91680908
H    0.28765106 0.81121063 0.92812347
C    0.47612000 0.03830719 0.68131256
N    0.47233582 0.05257416 0.71737671
N    0.46163177 0.00105286 0.67988586
C    0.45661163 0.02313232 0.73983002
C    0.45049286 0.99244690 0.71763611
C    0.49068451 0.06172943 0.64681244
H    0.43826294 0.96917725 0.72459412
H    0.45117188 0.02414703 0.76663971
H    0.51824951 0.06735992 0.64808655
H    0.48493958 0.04750061 0.62371826
H    0.47698212 0.08617401 0.64605713
C    0.29826355 0.04373169 0.85901642
N    0.29424286 0.00727081 0.84485626
N    0.33547974 0.05317688 0.86789703
C    0.33102417 0.99448395 0.84509277
C    0.35498810 0.02130127 0.85985565
C    0.26523590 0.07146454 0.86453247
H    0.38118744 0.01935577 0.86238098
H    0.33810425 0.97022247 0.83708191
H    0.27274323 0.09617615 0.85359192
H    0.24317169 0.06055450 0.85269165
H    0.26026917 0.07370758 0.89208984
C    0.54165649 0.77671051 0.61930847
N    0.52706909 0.75236511 0.59342957
N    0.56788635 0.80207825 0.60314941
C    0.55403137 0.77908325 0.05178070
C    0.57897186 0.80854797 0.05932617
C    0.52904510 0.77638245 0.66123199
H    0.59623718 0.82078552 0.04133606
H    0.55206299 0.76821899 0.02755737
H    0.54026031 0.79776764 0.67428589
H    0.50103760 0.77682495 0.66413116
H    0.53764343 0.75300598 0.67301178
C    0.22358704 0.77925873 0.81598663
N    0.20541382 0.79124451 0.78349304
N    0.20361328 0.75097656 0.83557129
C    0.72187805 0.74092102 0.76681519
C    0.71351624 0.71987915 0.79872894
C    0.26146698 0.79502869 0.83003235
H    0.70580292 0.69382477 0.79875946
H    0.71966553 0.73259735 0.74243927
H    0.25646210 0.80841827 0.85356140
H    0.27865601 0.77404022 0.83331299
H    0.27351379 0.81272888 0.81146240
C    0.48054504 0.01829529 0.06330109
N    0.46023560 0.04032135 0.03893280
N    0.45693970 0.99405670 0.08477020
C    0.42166138 0.02913666 0.04621124
C    0.41999817 0.00052643 0.07261658
C    0.52329254 0.01983643 0.06423187
H    0.39721680 0.98768616 0.08076477
H    0.40021515 0.03942871 0.03463745
H    0.53269196 0.04167938 0.04847717
H    0.53206635 0.02273560 0.09040070
H    0.53397369 0.99626160 0.05454254
C    0.42264557 0.78393555 0.08497620
N    0.42961121 0.72980499 0.59177399
N    0.38269806 0.77225494 0.60474396
C    0.39813232 0.71049500 0.60958862
C    0.37062073 0.73606873 0.61861420
C    0.44768524 0.81663513 0.06840515
H    0.34627533 0.73077393 0.63134766
H    0.39788818 0.68469238 0.61608887
H    0.47219086 0.81681061 0.08010101
H    0.45179749 0.81192780 0.04142761
H    0.43576813 0.84016418 0.07136536
C    0.66155243 0.01359558 0.86400604
N    0.68418121 0.99239349 0.84012604
N    0.63642120 0.03617859 0.84494781
C    0.67397308 0.00279236 0.80444336
C    0.64566040 0.02976227 0.80635834
C    0.66188049 0.01013947 0.90819550
H    0.63342285 0.04117584 0.78581238
H    0.68478394 0.99259186 0.78183746
H    0.65415192 0.98483276 0.91669464
H    0.68861389 0.01519012 0.91611481
H    0.64516449 0.02961731 0.91959381
C    0.49644470 0.65632629 0.66909790
N    0.48020172 0.68877411 0.65458679
N    0.47721100 0.64435577 0.70249176
C    0.45024109 0.69623566 0.68046570
C    0.44961548 0.67035675 0.70948029
C    0.53163910 0.63732147 0.65110779
H    0.43205261 0.67013550 0.73051453
H    0.43348694 0.71630859 0.67890167
H    0.52626801 0.63197327 0.62438202
H    0.55440521 0.65405273 0.65136719
H    0.53612518 0.61438751 0.66459656
C    0.72763824 0.90844727 0.92163086
N    0.24507904 0.94561005 0.89810181
N    0.23236847 0.90814209 0.95014954
C    0.24727631 0.96754456 0.93077087
C    0.23986816 0.94432068 0.96189880
C    0.70691681 0.87853241 0.89960480
H    0.24017334 0.95164490 0.98745728
H    0.25412750 0.99364471 0.93132019
H    0.71378326 0.85350800 0.90811157
H    0.67881775 0.88199615 0.90361023
H    0.71315002 0.88096619 0.87195587
C    0.29689789 0.66938019 0.88086700
N    0.27328491 0.69335175 0.86200714
N    0.32242584 0.65142059 0.85660553
C    0.28381348 0.68913269 0.82321167
C    0.31410217 0.66511536 0.82051849
C    0.29524994 0.66453552 0.92409515
H    0.32710266 0.65872955 0.79742432
H    0.27368164 0.70251465 0.80226898
H    0.26881409 0.66658783 0.93317413
H    0.30483246 0.63982391 0.93091583
H    0.31071472 0.68516541 0.93537903
C    0.53926849 0.92148590 0.12440491
N    0.52140808 0.93688202 0.64536285
N    0.56391907 0.88850403 0.64486694
C    0.53785706 0.93372345 0.68133545
C    0.56269836 0.90406799 0.68093109
C    0.53132629 0.91532898 0.08221436
H    0.57720184 0.89641571 0.70124054
H    0.53263092 0.94878387 0.70269012
H    0.52680206 0.88818359 0.07826996
H    0.50830841 0.92887115 0.07586670
H    0.55289459 0.92474365 0.06637573
C    0.48365021 0.65008545 0.04043579
N    0.50455475 0.62764740 0.01673126
N    0.50382233 0.68209839 0.05117035
C    0.54027557 0.64529419 0.01351166
C    0.54019928 0.67769623 0.03486633
C    0.44219208 0.64167023 0.05352020
H    0.56091309 0.69500732 0.03884125
H    0.56158447 0.63565063 0.00037384
H    0.42690277 0.66239929 0.04479218
H    0.43253326 0.61858368 0.04252625
H    0.44039154 0.63891602 0.08166504
C    0.72589111 0.90293121 0.78723907
N    0.24421692 0.87991333 0.75973511
N    0.25225830 0.92858887 0.80043793
C    0.28254700 0.89076996 0.75891876
C    0.28751373 0.92048645 0.78247833
C    0.68222809 0.90203094 0.78790283
H    0.31172180 0.93338776 0.78790283
H    0.30265045 0.88002014 0.74467468
H    0.67265320 0.87664795 0.78157806
H    0.67115784 0.90869141 0.81305695
H    0.67324066 0.91991425 0.76863861
Zn   0.85202026 0.31912994 0.11328888
Zn   0.11054993 0.07700348 0.36205292
Zn   0.86032867 0.09665680 0.36315918
Zn   0.09871674 0.34543610 0.12574005
Zn   0.73147583 0.21822357 0.37954712
Zn   0.96158600 0.45231628 0.13821411
Zn   0.98990631 0.09479523 0.23546600
Zn   0.74027252 0.35511780 0.48925018
Zn   0.98114777 0.20874023 0.10031891
Zn   0.73889923 0.46659088 0.34510803
Zn   0.72203827 0.32954407 0.23665619
Zn   0.98297119 0.07974243 0.48892975
C    0.04277039 0.58661652 0.30405426
N    0.03870392 0.10411072 0.26900482
N    0.08246613 0.09796143 0.31592560
C    0.05199432 0.13995361 0.27983093
C    0.07749939 0.13657379 0.30754089
C    0.01426697 0.56454468 0.33126831
H    0.09057617 0.15708160 0.31977844
H    0.04412842 0.16304779 0.26914978
H    0.01469421 0.57628632 0.35636902
H    0.98921204 0.56405640 0.32146454
H    0.02261353 0.53883362 0.33367920
C    0.81018066 0.33612061 0.53992462
N    0.79212952 0.36074066 0.51692963
N    0.83554077 0.35386658 0.56322479
C    0.80902863 0.39601135 0.52460480
C    0.83498383 0.39158630 0.55252075
C    0.80316162 0.29269409 0.54018402
H    0.84999084 0.41062927 0.56246948
H    0.80395508 0.41894531 0.51196289
H    0.77906036 0.28648376 0.55252075
H    0.80262756 0.28404236 0.51350403
H    0.82349396 0.28057098 0.55225372
C    0.93123627 0.09420776 0.30654907
N    0.94112396 0.08138275 0.27057648
N    0.89394379 0.08425140 0.31644440
C    0.90448761 0.56807709 0.26398468
C    0.87646484 0.56927490 0.29216003
C    0.95819092 0.11727142 0.33118439
H    0.85301208 0.55646515 0.29224396
H    0.90301514 0.55405426 0.24092102
H    0.97202301 0.09899902 0.34760284
H    0.97637177 0.13235474 0.31575012
H    0.94377899 0.13340759 0.34809875
C    0.17607117 0.35699463 0.56044006
N    0.19585419 0.37797546 0.53276062
N    0.14952087 0.37793732 0.57999420
C    0.18140411 0.41448975 0.53540039
C    0.15232849 0.41356659 0.56293488
C    0.18283844 0.31507111 0.57064819
H    0.13893890 0.43582153 0.57198334
H    0.19092560 0.43622589 0.52118683
H    0.16489410 0.29848480 0.55834961
H    0.20962524 0.30876160 0.56383514
H    0.17937469 0.31253052 0.59786987
C    0.77484894 0.31872559 0.16426849
N    0.76013184 0.30474091 0.19870758
N    0.80892181 0.30224609 0.15295410
C    0.78535461 0.27783966 0.20932770
C    0.81513977 0.27652740 0.18283844
C    0.75498962 0.34828186 0.14163971
H    0.83511353 0.25924683 0.18272400
H    0.78297424 0.26354980 0.23123169
H    0.75649261 0.37192535 0.15460968
H    0.23844147 0.34434509 0.15060425
H    0.77239227 0.36933899 0.63079834
C    0.04421234 0.08305359 0.42269135
N    0.02497101 0.06309509 0.45156097
N    0.07136536 0.06147003 0.40368652
C    0.04209900 0.52791595 0.44947052
C    0.06836700 0.52742767 0.41979218
C    0.03618622 0.12326813 0.41140747
H    0.07833862 0.50505066 0.40952301
H    0.03157806 0.50575256 0.46179962
H    0.04488373 0.12873840 0.38477325
H    0.00821686 0.12711334 0.41459656
H    0.04920197 0.14061737 0.42837524
C    0.15910339 0.34320831 0.19011688
N    0.17838287 0.31873322 0.21234131
N    0.13047028 0.32528687 0.17140198
C    0.16011047 0.28350067 0.20880127
C    0.13056946 0.28721619 0.18388367
C    0.16983032 0.38521576 0.18646240
H    0.11344910 0.26818848 0.17717743
H    0.16663361 0.26084900 0.22096252
H    0.15682983 0.39962006 0.20546722
H    0.19744110 0.38856506 0.19017792
H    0.16417694 0.39414978 0.16156769
C    0.92418671 0.58673096 0.42858124
N    0.93953705 0.09951782 0.45289612
N    0.89548492 0.10487366 0.40867615
C    0.92126465 0.13322449 0.45794678
C    0.89437866 0.13606262 0.43186188
C    0.93627930 0.55001068 0.41065216
H    0.87767792 0.15676117 0.42925262
H    0.92758179 0.15140533 0.47721100
H    0.92598724 0.54851532 0.38509369
H    0.96378326 0.54923248 0.40853119
H    0.92695618 0.52886200 0.42652130
C    0.91432953 0.37553406 0.14471436
N    0.91790771 0.41349030 0.15327454
N    0.87653351 0.36290741 0.14378357
C    0.89239502 0.44503021 0.64956665
C    0.86869049 0.41407776 0.64504242
C    0.94889069 0.34990692 0.14131927
H    0.84154510 0.41390228 0.64710236
H    0.88436127 0.46928406 0.65571594
H    0.96318054 0.35417175 0.11627960
H    0.96620941 0.35574341 0.16229248
H    0.94068146 0.32293701 0.14476776
C    0.16916656 0.14694977 0.36869812
N    0.18054199 0.17516327 0.39269257
N    0.14179993 0.12277985 0.38596344
C    0.15969849 0.16788483 0.42640686
C    0.13684845 0.13668823 0.42289734
C    0.18565369 0.14152527 0.32796478
H    0.11949158 0.12593079 0.44233704
H    0.16117859 0.18325043 0.44848633
H    0.18134308 0.16315460 0.31084442
H    0.21363068 0.13895416 0.32816315
H    0.17424774 0.11857605 0.31725311
C    0.74915314 0.28163147 0.43862152
N    0.72801208 0.30136871 0.46566010
N    0.73242950 0.24714661 0.43139648
C    0.17749786 0.30134583 0.46327972
C    0.17390442 0.27008820 0.44068146
C    0.78837585 0.29520416 0.42246246
H    0.15075684 0.25874329 0.43360138
H    0.15757751 0.31456757 0.47465515
H    0.80465698 0.27343750 0.41732788
H    0.78597260 0.30911255 0.39846802
H    0.79981995 0.31120300 0.44085693
C    0.96809387 0.52827454 0.18301392
N    0.98161316 0.54042816 0.21774292
N    0.95743561 0.49012756 0.18367767
C    0.97863007 0.50832367 0.24077606
C    0.96299744 0.47881317 0.22113800
C    0.96239471 0.55350494 0.14697266
H    0.95886230 0.45408630 0.23108673
H    0.98406219 0.50716400 0.26689148
H    0.94361115 0.54054260 0.13014984
H    0.95371246 0.57836151 0.15402985
H    0.98689270 0.55670166 0.13406372
C    0.79428101 0.53981781 0.35256958
N    0.78900909 0.50067902 0.35204315
N    0.82481384 0.55147552 0.37389374
C    0.81692505 0.48689270 0.37519836
C    0.83874512 0.51720428 0.38752747
C    0.76947021 0.56658936 0.33126831
H    0.86054993 0.51647949 0.40319824
H    0.82156372 0.46127319 0.37911224
H    0.77330780 0.56316376 0.30344391
H    0.74316406 0.56213379 0.33791351
H    0.77623749 0.59274292 0.33815002
C    0.04053497 0.27490234 0.12100983
N    0.02595520 0.25019073 0.09466553
N    0.06553650 0.30129242 0.10427094
C    0.05532837 0.27149200 0.55556488
C    0.07708740 0.30363464 0.55953979
C    0.02704620 0.27405548 0.16272736
H    0.09237671 0.31561279 0.53977966
H    0.05242157 0.25757599 0.53316498
H    0.99979401 0.27561951 0.16432953
H    0.03430939 0.24912262 0.17479706
H    0.03891754 0.29468536 0.17625427
C    0.73143768 0.27954865 0.31206512
N    0.70876312 0.29278564 0.28322601
N    0.71192169 0.25341797 0.33533478
C    0.25126648 0.24510193 0.26900482
C    0.24397278 0.22131348 0.29956055
C    0.77274323 0.29265594 0.31748962
H    0.25140381 0.19587708 0.30094910
H    0.26515961 0.23823547 0.24591064
H    0.77434540 0.31849670 0.32807922
H    0.78488922 0.27491760 0.33454895
H    0.78605652 0.29250336 0.29256439
C    0.98802948 0.52029419 0.55426025
N    0.96764374 0.53863525 0.52722168
N    0.96466064 0.49935150 0.57970428
C    0.92954254 0.52828217 0.53667450
C    0.92832184 0.50450897 0.56815338
C    0.03159332 0.52501678 0.55698395
H    0.90546417 0.49222565 0.57976532
H    0.90895844 0.53587341 0.52318573
H    0.04379272 0.51021576 0.53723145
H    0.03977203 0.55191040 0.55429077
H    0.04024506 0.51420593 0.58173370
C    0.93009949 0.27879333 0.58269501
N    0.92763519 0.22885895 0.08805084
N    0.88087463 0.27140045 0.10031891
C    0.89412689 0.20928955 0.10009003
C    0.86650848 0.23481750 0.10807037
C    0.95543671 0.30840302 0.56090546
H    0.84104156 0.22912598 0.11680603
H    0.89138794 0.18293762 0.10284424
H    0.97954559 0.31150818 0.57317352
H    0.96033478 0.29995728 0.53485107
H    0.94313049 0.33251953 0.56087494
C    0.17230988 0.51353455 0.35668945
N    0.19923401 0.49681854 0.33226013
N    0.14937592 0.53844452 0.33820343
C    0.19195557 0.51251221 0.29708862
C    0.16184998 0.53620911 0.30025482
C    0.17014313 0.50623322 0.39985657
H    0.15167999 0.55004120 0.27997589
H    0.20649719 0.50781250 0.27359009
H    0.14728546 0.51787567 0.41027069
H    0.16722107 0.47966003 0.40592194
H    0.19233704 0.51758575 0.41265106
C    0.99604034 0.16091919 0.17546844
N    0.97375488 0.18567657 0.15579987
N    0.97647858 0.14431000 0.20610809
C    0.93982697 0.18547821 0.17680359
C    0.94092560 0.16046143 0.20616150
C    0.03733063 0.15239716 0.16435242
H    0.92083740 0.15434265 0.22380066
H    0.91926575 0.20090485 0.17143250
H    0.04830933 0.13938904 0.18547821
H    0.03902435 0.13628387 0.14198303
H    0.05183411 0.17546844 0.15939331
C    0.23486328 0.41185760 0.41570282
N    0.73825836 0.44292450 0.40035248
N    0.73841858 0.40238190 0.45176697
C    0.74552155 0.46333313 0.43290710
C    0.74574280 0.43924713 0.46389008
C    0.22155762 0.38040161 0.39115143
H    0.74963379 0.44548035 0.48915863
H    0.74980927 0.49030304 0.43360138
H    0.20648193 0.39103699 0.37003326
H    0.24388885 0.36734772 0.37992859
H    0.20491791 0.36248779 0.40656281
C    0.80191040 0.16306305 0.37780762
N    0.78167725 0.19065094 0.35978699
N    0.82601166 0.14490509 0.35282898
C    0.79251862 0.18872833 0.32172394
C    0.81829834 0.16094971 0.31757355
C    0.79957581 0.15427399 0.41987610
H    0.83065033 0.15280914 0.29436493
H    0.78306580 0.20480347 0.30179596
H    0.80778503 0.17676544 0.43453217
H    0.77379608 0.14694214 0.42797089
H    0.81616211 0.13367462 0.42576599
C    0.04672241 0.42689514 0.61950684
N    0.01609039 0.43199921 0.14436340
N    0.06521606 0.39176178 0.14169312
C    0.03443146 0.43264771 0.17854309
C    0.06478882 0.40840912 0.17691803
C    0.04266357 0.42431641 0.57703400
H    0.08227539 0.40338898 0.19618225
H    0.02723694 0.44762421 0.19966125
H    0.03810120 0.39827728 0.57041931
H    0.02104950 0.43965912 0.56963348
H    0.06572723 0.43459320 0.56314087
C    0.98302460 0.14491272 0.54888916
N    0.00148773 0.12363434 0.52236938
N    0.00335693 0.17846680 0.55649567
C    0.03680420 0.14331818 0.51509857
C    0.03742218 0.17629242 0.53546143
C    0.94264221 0.13661194 0.56357574
H    0.05828857 0.19419861 0.53638458
H    0.05681610 0.13533020 0.49914551
H    0.92481232 0.15432739 0.55205536
H    0.93588257 0.11001587 0.55770874
H    0.94196320 0.14009094 0.59162903
C    0.23432159 0.40251923 0.28273010
N    0.74119568 0.37937927 0.25894165
N    0.74837494 0.42630005 0.30350494
C    0.78054810 0.38566589 0.26531982
C    0.78404999 0.41368866 0.29180908
C    0.19123840 0.40512085 0.28620911
H    0.80737305 0.42319489 0.30057526
H    0.80133820 0.37348175 0.25421143
H    0.18228912 0.42266083 0.26647949
H    0.17974091 0.37986755 0.28102112
H    0.18274689 0.41278839 0.31171417
Zn   0.86444092 0.33553314 0.60903931
Zn   0.10923004 0.08190155 0.85127258
Zn   0.85505676 0.09927368 0.86659241
Zn   0.10659790 0.36074829 0.62090302
Zn   0.72614288 0.21897125 0.87662506
Zn   0.97523499 0.47524261 0.63337708
Zn   0.98146057 0.10375977 0.73489380
Zn   0.74020386 0.35949707 0.98429871
Zn   0.99361420 0.21935272 0.59719849
Zn   0.74811554 0.46903992 0.84001160
Zn   0.73501587 0.32814026 0.73455048
Zn   0.98374939 0.07404327 0.98441315
C    0.05467987 0.58670807 0.79414368
N    0.02957916 0.11052704 0.76501465
N    0.07673645 0.09651947 0.80470276
C    0.06369019 0.12355042 0.74868011
C    0.09181213 0.11491394 0.77267456
C    0.04003906 0.54462433 0.79533386
H    0.11830139 0.12168121 0.76779938
H    0.06683350 0.13756561 0.72541046
H    0.03462982 0.53585815 0.76991272
H    0.05927277 0.52793884 0.80571747
H    0.01629639 0.54282379 0.81175232
C    0.80464172 0.33192444 0.04203796
N    0.78812408 0.35951996 0.02001190
N    0.83010864 0.34604645 0.06669617
C    0.80398560 0.39305115 0.03327179
C    0.83013916 0.38476562 0.06074524
C    0.79715729 0.28958893 0.03695679
H    0.84577942 0.40254974 0.07368469
H    0.79915619 0.41719055 0.02366638
H    0.81884766 0.27819061 0.02155304
H    0.79540253 0.27706909 0.06237030
H    0.77337646 0.28513336 0.02422333
C    0.91828156 0.10762787 0.80278778
N    0.93080139 0.09243011 0.76904297
N    0.88423920 0.09246063 0.81619263
C    0.90502930 0.62268829 0.75691986
C    0.87713623 0.61671448 0.78439331
C    0.94061279 0.13877106 0.82364655
H    0.85069275 0.61267090 0.78056335
H    0.90025330 0.62624359 0.73138428
H    0.96479034 0.14479828 0.80992889
H    0.92584991 0.16201019 0.82431793
H    0.94655609 0.13005066 0.84953308
C    0.16815948 0.34395599 0.06385040
N    0.18373871 0.36357117 0.03272247
N    0.13930511 0.36310577 0.08158112
C    0.16390991 0.39768219 0.03217316
C    0.13775635 0.39752960 0.06204987
C    0.17914581 0.30425262 0.07563019
H    0.12008667 0.41663361 0.06721497
H    0.16850281 0.41634369 0.01275635
H    0.16159821 0.28555298 0.06428528
H    0.20495605 0.30010223 0.06547546
H    0.17833710 0.30161285 0.10406494
C    0.79223633 0.32454681 0.66320801
N    0.78015137 0.31049347 0.69860077
N    0.82917786 0.31700134 0.65435791
C    0.81324768 0.29653168 0.71380615
C    0.84258270 0.29943848 0.68734741
C    0.76627350 0.34210205 0.63485718
H    0.86737823 0.29065704 0.68998718
H    0.81414795 0.28512573 0.73828888
H    0.76840210 0.32869720 0.61071777
H    0.27752686 0.36429596 0.61478424
H    0.72861481 0.34017944 0.13963318
C    0.05423737 0.08419800 0.92406464
N    0.03176117 0.06170654 0.94875336
N    0.07721710 0.06351471 0.90071106
C    0.03941345 0.51659393 0.95090485
C    0.06570435 0.51937103 0.92105103
C    0.05427551 0.12664795 0.92325592
H    0.08237457 0.50101471 0.91402435
H    0.03495026 0.49559784 0.96784973
H    0.03201294 0.13524628 0.93872070
H    0.07728577 0.13652039 0.93294525
H    0.05157471 0.13578033 0.89717102
C    0.16590118 0.35546875 0.68722534
N    0.18089294 0.32953644 0.71192169
N    0.13754272 0.33902740 0.66509247
C    0.16146088 0.29474640 0.70388031
C    0.13533020 0.30140686 0.67710114
C    0.17592621 0.39733887 0.68664551
H    0.11889648 0.28267670 0.66764069
H    0.16542053 0.27092743 0.71688080
H    0.15357208 0.41111755 0.69503021
H    0.19549561 0.40135956 0.70550537
H    0.18507385 0.40699768 0.66140747
C    0.90767670 0.57620239 0.94086456
N    0.94245911 0.09732819 0.95133972
N    0.89106750 0.10314178 0.91300964
C    0.92248535 0.12882233 0.96149445
C    0.89109039 0.13154602 0.93961334
C    0.90422058 0.53338623 0.93135071
H    0.87220764 0.15037537 0.94219971
H    0.92934418 0.14637756 0.98046875
H    0.92390442 0.52696991 0.91228485
H    0.90773010 0.51855469 0.95467377
H    0.87816620 0.52711487 0.92224121
C    0.92708588 0.39662933 0.63497162
N    0.92938995 0.43470001 0.64356232
N    0.89024353 0.38294220 0.63407898
C    0.88047791 0.42498016 0.15858459
C    0.85552979 0.39496613 0.15329742
C    0.96138000 0.37319183 0.62792206
H    0.82917023 0.39560699 0.15660858
H    0.87410736 0.45032501 0.16554260
H    0.96987915 0.37756348 0.60172272
H    0.98116302 0.38126373 0.64420319
H    0.95684814 0.34609222 0.63221741
C    0.16895294 0.14570618 0.87361145
N    0.17491150 0.18408203 0.87117004
N    0.13564301 0.13521576 0.85710144
C    0.14321136 0.19812775 0.85411072
C    0.11962891 0.16823578 0.84465790
C    0.19451141 0.11909485 0.89351654
H    0.09633636 0.16991425 0.83235168
H    0.13937378 0.22328186 0.84857178
H    0.18521881 0.11370087 0.91904449
H    0.19635010 0.09593201 0.87993622
H    0.22039032 0.13111115 0.89456177
C    0.73979950 0.28001404 0.94152832
N    0.72063446 0.30819702 0.96105957
N    0.71463776 0.25585175 0.92258453
C    0.17847443 0.28668213 0.96262360
C    0.17782593 0.25725555 0.93711853
C    0.78240967 0.27674103 0.93999481
H    0.15591431 0.24327087 0.93067932
H    0.15719604 0.29616547 0.97489929
H    0.78975677 0.25136566 0.94707489
H    0.79179382 0.28225708 0.91437531
H    0.79319763 0.29528046 0.95687866
C    0.97180176 0.54850006 0.68194580
N    0.96899414 0.56127930 0.71870422
N    0.96311951 0.51020050 0.67887115
C    0.95487976 0.52966309 0.73983002
C    0.95206451 0.49893951 0.71662140
C    0.98317719 0.57415009 0.64843750
H    0.94495392 0.47351837 0.72471619
H    0.94988251 0.52923584 0.76683807
H    0.97036743 0.56533051 0.62641907
H    0.97686005 0.59944916 0.65447235
H    0.01057434 0.57273865 0.64454651
C    0.79976654 0.54437256 0.84587097
N    0.79681396 0.50746155 0.83513641
N    0.83741760 0.55599213 0.85011292
C    0.83427429 0.49593353 0.83200836
C    0.85836792 0.52534485 0.84082794
C    0.76644897 0.57019043 0.84807587
H    0.88477325 0.52426147 0.83986664
H    0.84225464 0.47206879 0.82446289
H    0.74469757 0.55873108 0.83441162
H    0.75827026 0.57417297 0.87526703
H    0.77400208 0.59452057 0.83560181
C    0.04843903 0.28979492 0.61521912
N    0.03762817 0.26142883 0.59066772
N    0.07401276 0.31633759 0.59806824
C    0.04267120 0.26172638 0.05993652
C    0.06733704 0.29147339 0.06571198
C    0.03411865 0.29155731 0.65644836
H    0.08310699 0.30438995 0.04690552
H    0.03821564 0.25045776 0.03576660
H    0.00675201 0.29061890 0.65905762
H    0.04335022 0.27019501 0.67080688
H    0.04390717 0.31465149 0.66691589
C    0.72637939 0.27980042 0.80928802
N    0.73818207 0.28278351 0.77177429
N    0.72422028 0.24257660 0.82164764
C    0.21827698 0.24695587 0.75935364
C    0.20984650 0.22519684 0.79089355
C    0.71576691 0.31282806 0.83307648
H    0.20081329 0.19969177 0.79097748
H    0.21559143 0.23943329 0.73341370
H    0.71501160 0.30435944 0.85988617
H    0.73454285 0.33316803 0.82956696
H    0.69123077 0.32133484 0.82599640
C    0.97555542 0.50095367 0.06217194
N    0.95672607 0.52056885 0.03512573
N    0.95258331 0.47677612 0.08378601
C    0.91951752 0.50645447 0.03962708
C    0.91656494 0.48069000 0.06893158
C    0.01812744 0.50746155 0.06898499
H    0.89408875 0.46746826 0.07717133
H    0.89908600 0.51348877 0.02427673
H    0.02548981 0.49311829 0.09091949
H    0.03177643 0.49852753 0.04679108
H    0.02356720 0.53498840 0.07281494
C    0.91687775 0.26610565 0.08560944
N    0.93998718 0.24135590 0.58815002
N    0.89382935 0.28556824 0.59708405
C    0.90716553 0.22360229 0.60430908
C    0.87979126 0.25031281 0.61051941
C    0.94126892 0.29782867 0.06547546
H    0.85530090 0.24684906 0.62215424
H    0.90431976 0.19718170 0.61155701
H    0.96656036 0.30000305 0.07633209
H    0.94464874 0.29179382 0.03843689
H    0.92860413 0.32176971 0.06768036
C    0.16913605 0.51552582 0.86499023
N    0.19007874 0.49239349 0.84108734
N    0.14518738 0.53837585 0.84546661
C    0.17787170 0.50182343 0.80444336
C    0.15056610 0.52927399 0.80725861
C    0.17179108 0.51609802 0.90842438
H    0.13906097 0.54035187 0.78616333
H    0.18644714 0.49076843 0.78123474
H    0.16609192 0.48999786 0.91921997
H    0.19807434 0.52419281 0.91278076
H    0.15364075 0.53466034 0.91928101
C    0.99989319 0.16481781 0.66755676
N    0.98807526 0.19867706 0.65305328
N    0.97884369 0.15352631 0.69958496
C    0.95888519 0.20955658 0.67808533
C    0.95303345 0.18257904 0.70559692
C    0.03310394 0.14346313 0.64887238
H    0.93367767 0.18251038 0.72563934
H    0.94463348 0.23225403 0.67692566
H    0.02786255 0.13932800 0.62185669
H    0.05632019 0.15822601 0.65122223
H    0.03527069 0.11875153 0.66158295
C    0.23120117 0.40505219 0.91988373
N    0.75639343 0.44265747 0.89353943
N    0.75492096 0.39942932 0.94306946
C    0.79305267 0.44122314 0.90895081
C    0.79180908 0.41501617 0.93857574
C    0.22582245 0.37096405 0.89543152
H    0.81261444 0.40767670 0.95345306
H    0.81467438 0.45512390 0.89928436
H    0.25065613 0.35852814 0.89186096
H    0.20799255 0.35302734 0.90848541
H    0.21629333 0.37828064 0.87131500
C    0.79188538 0.15955353 0.88336182
N    0.78078461 0.19522095 0.87291718
N    0.82471466 0.14922333 0.86415100
C    0.80937958 0.20795441 0.84683228
C    0.83570862 0.18073273 0.84192657
C    0.77248383 0.13493347 0.91503906
H    0.85780334 0.18288422 0.82562256
H    0.81053162 0.23236847 0.83496857
H    0.77959442 0.14457703 0.93984985
H    0.74471283 0.13452911 0.91333008
H    0.78112793 0.10931396 0.91329956
C    0.03560638 0.40673065 0.12237549
N    0.02748871 0.45281219 0.64222717
N    0.07084656 0.40489960 0.63958740
C    0.04154968 0.44633484 0.67826080
C    0.06779480 0.41799164 0.67695618
C    0.02701569 0.39743805 0.08187103
H    0.08161926 0.40904999 0.69816589
H    0.03403473 0.45959473 0.70028687
H    0.03173065 0.37091827 0.07815552
H    0.00059509 0.40273285 0.07705688
H    0.04308319 0.41173553 0.06321716
C    0.98034668 0.13414764 0.04836273
N    0.00202179 0.11357117 0.02332306
N    0.99964905 0.16644287 0.06103516
C    0.03717804 0.13334656 0.02068329
C    0.03573608 0.16526794 0.04336548
C    0.93965149 0.12345123 0.06173706
H    0.05567932 0.18460083 0.04519653
H    0.05867004 0.12614441 0.00446320
H    0.92208862 0.13949585 0.04775238
H    0.93383026 0.09704590 0.05822754
H    0.93640137 0.12946320 0.08827972
C    0.23309326 0.40300751 0.78900909
N    0.75238037 0.38069153 0.75465393
N    0.75833130 0.43058777 0.79489899
C    0.78942108 0.39445496 0.75270844
C    0.79355621 0.42407990 0.77647400
C    0.18938446 0.40392303 0.79170227
H    0.81606293 0.43878174 0.77928925
H    0.80808258 0.38462830 0.73646545
H    0.18092346 0.41289520 0.81709290
H    0.17970276 0.42131042 0.77272797
H    0.17807007 0.37899017 0.78796387
Zn   0.85577393 0.81993103 0.11663055
Zn   0.11236572 0.58090973 0.35822296
Zn   0.85848999 0.60055542 0.37206268
Zn   0.10307312 0.84889221 0.11695099
Zn   0.72555542 0.71221924 0.38305664
Zn   0.96784973 0.96062469 0.12165070
Zn   0.98434448 0.59544373 0.24127197
Zn   0.72934723 0.85105133 0.49580383
Zn   0.98938751 0.70636749 0.09957123
Zn   0.73793030 0.96446228 0.35549927
Zn   0.72389984 0.82608795 0.24472046
Zn   0.98619080 0.58174896 0.49037933
C    0.05751801 0.07915497 0.29230499
N    0.03332520 0.60260773 0.27019501
N    0.08058167 0.59445953 0.31180573
C    0.06702423 0.61835480 0.25467682
C    0.09589386 0.61270905 0.27973938
C    0.05204010 0.03632355 0.29158020
H    0.12107849 0.62207031 0.27690125
H    0.06926727 0.63190460 0.23189545
H    0.02633667 0.03073120 0.28356934
H    0.06996918 0.02566528 0.27315521
H    0.05622864 0.02576447 0.31696320
C    0.80255127 0.82881165 0.54164124
N    0.78421783 0.85374451 0.51790619
N    0.83077240 0.84622955 0.56166077
C    0.80413818 0.88836670 0.52170563
C    0.83160400 0.88436127 0.54830933
C    0.79045868 0.78638458 0.54822540
H    0.84962463 0.90399933 0.55480957
H    0.80043793 0.91074371 0.50767517
H    0.80945587 0.77113342 0.53604126
H    0.78879547 0.78018188 0.57555389
H    0.76575470 0.78150177 0.53734589
C    0.92446899 0.60610962 0.30823517
N    0.93503571 0.59031677 0.27423096
N    0.88893890 0.59334564 0.32082367
C    0.90910339 0.06246948 0.25794983
C    0.88047028 0.06449127 0.28525543
C    0.94893646 0.63327026 0.33109283
H    0.85522461 0.05356598 0.28264618
H    0.90702057 0.05030060 0.23413086
H    0.93367767 0.65496826 0.33846283
H    0.95733643 0.61952972 0.35317230
H    0.97075653 0.64221954 0.31525421
C    0.17960358 0.85485077 0.54804993
N    0.20007324 0.87434387 0.51884460
N    0.15293884 0.87648773 0.56586456
C    0.18458557 0.91006470 0.51834869
C    0.15643311 0.91153717 0.54692078
C    0.18865967 0.81488037 0.56098938
H    0.14242554 0.93270874 0.55292511
H    0.19219208 0.93109894 0.50256348
H    0.21614075 0.81251526 0.56278992
H    0.17717743 0.80937195 0.58594513
H    0.17953491 0.79778290 0.54253387
C    0.78129578 0.82067108 0.17178345
N    0.76750946 0.80632782 0.20761108
N    0.81571198 0.80579376 0.16180420
C    0.79607391 0.78248596 0.21968079
C    0.82424927 0.78294373 0.19275665
C    0.76179504 0.85029602 0.14891815
H    0.84700012 0.76847839 0.19360352
H    0.79525757 0.76839447 0.24199677
H    0.77141571 0.84861755 0.12223053
H    0.23407745 0.84876251 0.14157867
H    0.73834229 0.84429169 0.64576721
C    0.05567169 0.58675385 0.43119049
N    0.03356934 0.56555939 0.45777130
N    0.07868195 0.56475830 0.40833282
C    0.04212952 0.02723694 0.45144653
C    0.06851196 0.02622223 0.42234039
C    0.05379486 0.62984467 0.42629242
H    0.08286285 0.00460815 0.41532135
H    0.03549194 0.00665283 0.46807098
H    0.04795074 0.63487244 0.40009308
H    0.03605652 0.64012909 0.44456482
H    0.07868195 0.64141846 0.43180084
C    0.15956879 0.85122681 0.18361664
N    0.17267609 0.83010101 0.21306610
N    0.13234711 0.83146667 0.16365814
C    0.15018463 0.79683685 0.21318817
C    0.12709045 0.79722595 0.18292236
C    0.17309570 0.89086914 0.17352295
H    0.11044312 0.77733612 0.17604828
H    0.15303802 0.77587128 0.23015594
H    0.17596436 0.89480591 0.14555359
H    0.15532684 0.90838623 0.18341827
H    0.19804382 0.89613342 0.18437195
C    0.92356873 0.08271027 0.42269135
N    0.94402313 0.60359192 0.45721436
N    0.89154053 0.60604858 0.41973114
C    0.92418671 0.63560486 0.46559906
C    0.89243317 0.63755035 0.44329071
C    0.93432617 0.04487610 0.40777588
H    0.87502289 0.65757751 0.44291687
H    0.93130493 0.65419006 0.48297882
H    0.92068481 0.03789520 0.38456726
H    0.96109772 0.04553986 0.40203094
H    0.92835999 0.02597809 0.42733765
C    0.91981506 0.88214874 0.13153839
N    0.92315674 0.92131042 0.13850403
N    0.88270569 0.86939240 0.13542938
C    0.89305878 0.93433380 0.65351105
C    0.86891174 0.90332031 0.65159607
C    0.95391846 0.85662079 0.12533569
H    0.84219360 0.90122223 0.66102600
H    0.88645172 0.95767975 0.66517639
H    0.96385956 0.85980225 0.09939575
H    0.97334290 0.86331177 0.14259338
H    0.94502258 0.83073425 0.12960052
C    0.17228699 0.64462280 0.37902832
N    0.17780304 0.68331909 0.38015747
N    0.13758850 0.63431549 0.36393738
C    0.14444733 0.69703674 0.36782837
C    0.12048340 0.66825867 0.35700226
C    0.20095062 0.61598969 0.39156342
H    0.09653473 0.66958618 0.34713745
H    0.13836670 0.72340393 0.36576843
H    0.19628906 0.59201050 0.37812805
H    0.22631073 0.62664032 0.38520813
H    0.19741821 0.61170959 0.41926575
C    0.73699951 0.77790833 0.44552612
N    0.71564484 0.79928589 0.47105408
N    0.71507263 0.74814606 0.43125153
C    0.18945312 0.79383087 0.46150970
C    0.18439484 0.76291656 0.43899536
C    0.78152466 0.78149414 0.43923187
H    0.16057587 0.75182343 0.43223572
H    0.16966248 0.80728912 0.47425079
H    0.79011536 0.76782990 0.41671753
H    0.78974915 0.80838776 0.43685150
H    0.79322815 0.77052307 0.46116638
C    0.98015594 0.03392792 0.16873932
N    0.98484802 0.04263306 0.20659637
N    0.96279907 0.99851990 0.16560364
C    0.97325897 0.01042175 0.22702789
C    0.95791626 0.98475647 0.20265198
C    0.98889160 0.06177521 0.13531494
H    0.94635010 0.96024323 0.20961761
H    0.97348022 0.00786591 0.25348663
H    0.97128296 0.05648041 0.11494446
H    0.98595428 0.08776855 0.14329529
H    0.01548767 0.05958557 0.12506866
C    0.79669189 0.03366089 0.35256958
N    0.78823090 0.99597931 0.36231232
N    0.82603455 0.04844666 0.37319183
C    0.81529999 0.98567200 0.38828278
C    0.83710480 0.01764679 0.39573669
C    0.77569580 0.05563354 0.32221985
H    0.85689545 0.01851654 0.41320801
H    0.81587219 0.96150970 0.39927673
H    0.78384399 0.04786682 0.29750061
H    0.74875641 0.05031586 0.32465363
H    0.78054810 0.08251190 0.32482910
C    0.04192352 0.77931976 0.11404419
N    0.02996826 0.75105286 0.08996582
N    0.06860352 0.80376434 0.09597015
C    0.04872894 0.77338409 0.54602051
C    0.07356262 0.80352020 0.54845428
C    0.02445221 0.78490448 0.15393829
H    0.08973694 0.81365967 0.52814484
H    0.04493713 0.75893402 0.52423096
H    0.99734497 0.78881836 0.15266418
H    0.02922058 0.76171112 0.16917419
H    0.03634644 0.80740356 0.16606903
C    0.72978973 0.77283478 0.31665039
N    0.72383118 0.77683258 0.27838135
N    0.71435547 0.73912048 0.33132935
C    0.21388245 0.74613953 0.26439667
C    0.20909119 0.72333527 0.29627991
C    0.75425720 0.80075836 0.34011841
H    0.20096588 0.69736481 0.29665375
H    0.20877075 0.73906708 0.23944092
H    0.74568939 0.82673645 0.33744812
H    0.75193787 0.79379272 0.36628723
H    0.78134918 0.79989624 0.33226013
C    0.98515320 0.01514435 0.55043030
N    0.96454620 0.03523254 0.52445984
N    0.96240234 0.99010468 0.57164001
C    0.92774963 0.02077484 0.52884674
C    0.92643738 0.99291992 0.55680847
C    0.02708435 0.02203369 0.55669403
H    0.90422821 0.97878265 0.56647491
H    0.90702057 0.02885437 0.51585388
H    0.03455353 0.04940033 0.55158997
H    0.03284454 0.01382446 0.58318329
H    0.04238892 0.00621796 0.53934479
C    0.92328644 0.77133179 0.57929993
N    0.93284607 0.72696686 0.09550476
N    0.88484955 0.76957703 0.10575104
C    0.90274048 0.70991516 0.11738586
C    0.87406158 0.73503113 0.12382507
C    0.94519806 0.79910278 0.55289459
H    0.85182953 0.73022461 0.13699341
H    0.90275574 0.68406677 0.12686920
H    0.97152710 0.80374146 0.56119537
H    0.94664764 0.78861237 0.52675629
H    0.93241882 0.82376862 0.55260468
C    0.17359161 0.01555634 0.35926819
N    0.19674683 0.99662781 0.33408356
N    0.14735413 0.03599548 0.34093475
C    0.18345642 0.00537872 0.29859924
C    0.15309143 0.02874756 0.30231476
C    0.17673492 0.01359558 0.40238190
H    0.13954926 0.04011536 0.28087616
H    0.19337463 0.99685669 0.27585602
H    0.16202545 0.99165344 0.41311646
H    0.20310974 0.01087189 0.40888214
H    0.16733551 0.03627777 0.41358185
C    0.00013733 0.65419006 0.17282867
N    0.98741150 0.68771362 0.15747833
N    0.98049164 0.64356995 0.20590210
C    0.96125793 0.70002747 0.18469238
C    0.95780945 0.67420959 0.21402740
C    0.02974701 0.62995148 0.15327454
H    0.94116974 0.67646027 0.23552704
H    0.94788361 0.72321320 0.18361664
H    0.02144623 0.62283325 0.12747955
H    0.05384827 0.64456940 0.15019989
H    0.03433228 0.60726929 0.16751862
C    0.23854065 0.90880585 0.41236115
N    0.73480225 0.94161987 0.41346741
N    0.72495270 0.90074158 0.46383667
C    0.73984528 0.96115112 0.44657135
C    0.73342133 0.93655396 0.47732544
C    0.19859314 0.89252472 0.40130615
H    0.73535919 0.94331360 0.50386810
H    0.74727631 0.98756409 0.44802094
H    0.19508362 0.86629486 0.41105652
H    0.17771912 0.90782166 0.41265106
H    0.19719696 0.89230347 0.37313843
C    0.79838562 0.66188049 0.38833618
N    0.77697754 0.68830872 0.37049866
N    0.82638550 0.64783478 0.36466217
C    0.79214478 0.68988800 0.33417511
C    0.82142639 0.66579437 0.33025360
C    0.79172516 0.65020752 0.43041229
H    0.83484650 0.66146088 0.30718994
H    0.78215790 0.70508575 0.31478882
H    0.80223083 0.62489319 0.43528748
H    0.80596924 0.66838074 0.44631195
H    0.76458740 0.65094757 0.43704987
C    0.04665375 0.92023468 0.60445404
N    0.02397919 0.93934631 0.12849426
N    0.06853485 0.89431000 0.13032532
C    0.03974915 0.93889618 0.16461945
C    0.06639862 0.91120148 0.16635895
C    0.03827667 0.91277313 0.56269836
H    0.08089447 0.90499115 0.18655396
H    0.03204346 0.95551300 0.18440247
H    0.01816559 0.92881012 0.55516052
H    0.06149292 0.91783142 0.54656982
H    0.03096771 0.88613892 0.56081390
C    0.98531342 0.64588928 0.55191040
N    0.00535583 0.62371826 0.52751160
N    0.00638580 0.67710114 0.56203461
C    0.04080963 0.64249420 0.52210999
C    0.04173279 0.67367554 0.54378510
C    0.94508362 0.63626862 0.56609344
H    0.06292725 0.69039154 0.54505920
H    0.06134033 0.63421631 0.50682831
H    0.92736053 0.64920044 0.55007935
H    0.94008636 0.60943604 0.56667328
H    0.94034576 0.64574432 0.59098816
C    0.23156738 0.90808105 0.27814484
N    0.74404144 0.87393951 0.27265930
N    0.74820709 0.92527008 0.31174469
C    0.78183746 0.88259888 0.27828979
C    0.78490448 0.91238403 0.30297852
C    0.18769073 0.91162109 0.28041077
H    0.80821991 0.92433929 0.30997467
H    0.80318451 0.87052917 0.26531982
H    0.17479706 0.88754272 0.27780151
H    0.18006134 0.92190552 0.30492401
H    0.18048096 0.92846680 0.25931549
Zn   0.86019897 0.82845306 0.60877228
Zn   0.10795593 0.58007812 0.86630249
Zn   0.85992432 0.60693359 0.87036133
Zn   0.10895538 0.85710907 0.60448456
Zn   0.72464752 0.71903992 0.88652039
Zn   0.97249603 0.96575928 0.62397766
Zn   0.98983002 0.61317444 0.74110413
Zn   0.73423004 0.85651398 0.99355316
Zn   0.99311066 0.72014618 0.59696960
Zn   0.73385620 0.96427917 0.85069275
Zn   0.73149109 0.82496643 0.74090576
Zn   0.97804260 0.56452179 0.99532318
C    0.03878021 0.09314728 0.79869843
N    0.03987122 0.61370087 0.76985931
N    0.08113098 0.60280609 0.81787872
C    0.05835724 0.64756012 0.77841949
C    0.08353424 0.64105225 0.80687714
C    0.01018524 0.07331085 0.82541656
H    0.09993744 0.65962219 0.81703186
H    0.05475616 0.67095947 0.76640320
H    0.02140045 0.04969025 0.83455658
H    0.00395966 0.09002686 0.84767151
H    0.98624420 0.06828308 0.81189728
C    0.79965973 0.82815552 0.04632568
N    0.78543854 0.85633850 0.02320099
N    0.82865143 0.84217072 0.06823730
C    0.80693054 0.88830566 0.03103638
C    0.83231354 0.88052368 0.05773163
C    0.78702545 0.78593445 0.04505157
H    0.85018921 0.89804077 0.06724548
H    0.80404663 0.91221619 0.01975250
H    0.76876831 0.78115082 0.06611633
H    0.77552032 0.77938843 0.02163696
H    0.80902100 0.76978302 0.04862213
C    0.93183899 0.61808777 0.81250763
N    0.94075012 0.62416840 0.77400970
N    0.89308167 0.61486053 0.82002258
C    0.90170288 0.06628418 0.76020050
C    0.87355804 0.06598663 0.78813934
C    0.96090698 0.62051392 0.84337616
H    0.85041809 0.05091858 0.78828430
H    0.90155792 0.05141449 0.73759460
H    0.98593140 0.62826538 0.83261108
H    0.95247650 0.63846588 0.86270142
H    0.96325684 0.59542084 0.85495758
C    0.17501831 0.85140991 0.05810547
N    0.18959045 0.87174988 0.02654266
N    0.14419556 0.86918640 0.07551575
C    0.16870880 0.90442657 0.02581787
C    0.14155579 0.90302277 0.05427551
C    0.18915558 0.81269836 0.07116699
H    0.12326050 0.92170715 0.05874634
H    0.17264557 0.92459106 0.00820160
H    0.16708374 0.79735565 0.08248138
H    0.19947052 0.79978943 0.04888153
H    0.20908356 0.81551361 0.08967590
C    0.78917694 0.82770538 0.66903687
N    0.77660370 0.81118774 0.70321655
N    0.82442474 0.81404877 0.65629578
C    0.80614471 0.78891754 0.71450043
C    0.83470154 0.79192352 0.68691254
C    0.76456451 0.85370636 0.64495850
H    0.85781860 0.77944183 0.68812561
H    0.80601501 0.77297974 0.73712921
H    0.76588440 0.87858582 0.65609741
H    0.25666809 0.86898041 0.65041351
H    0.77001190 0.87520599 0.15788269
C    0.03468323 0.57276154 0.92398071
N    0.01941681 0.55071259 0.95348358
N    0.06408691 0.55538177 0.90303040
C    0.04137421 0.02486420 0.94060516
C    0.06924438 0.02558136 0.91181946
C    0.02215576 0.61292267 0.91579437
H    0.08026123 0.00468445 0.90053558
H    0.02925110 0.00281525 0.95287323
H    0.99457550 0.61477661 0.92110443
H    0.03592682 0.63004303 0.93256378
H    0.02931976 0.61972046 0.88933563
C    0.16196442 0.85060120 0.67774200
N    0.17713165 0.82374573 0.70092010
N    0.13877106 0.83348846 0.65035248
C    0.16190338 0.78878784 0.68812561
C    0.14050293 0.79461670 0.65722656
C    0.17138672 0.89323425 0.68006134
H    0.12892151 0.77613831 0.64228821
H    0.16755676 0.76449585 0.69813538
H    0.16505432 0.90196991 0.70600128
H    0.19813538 0.89874268 0.67420197
H    0.15610504 0.90719604 0.66076660
C    0.92234802 0.08244324 0.92153931
N    0.92977142 0.59008789 0.96952820
N    0.89025116 0.60546112 0.92124939
C    0.92366791 0.62918091 0.96978760
C    0.90117645 0.63856506 0.93981934
C    0.93344116 0.04770660 0.90010071
H    0.89492798 0.66320801 0.93386841
H    0.93572235 0.64691925 0.98548889
H    0.92269897 0.04960632 0.87520599
H    0.96096039 0.04613495 0.89760590
H    0.92279053 0.02455139 0.91321564
C    0.92588806 0.88809967 0.62954712
N    0.93009186 0.92506409 0.64083862
N    0.88881683 0.87370300 0.63514709
C    0.88595581 0.93223572 0.14697266
C    0.86248016 0.90032959 0.14642334
C    0.95982361 0.86413574 0.61678314
H    0.83594513 0.90023804 0.15080261
H    0.87928009 0.95698547 0.15271759
H    0.96677399 0.86986542 0.59052277
H    0.98120117 0.87033081 0.63317871
H    0.95207214 0.83742523 0.62058258
C    0.16969299 0.64252472 0.88471985
N    0.17334747 0.68151093 0.88794708
N    0.13231659 0.62975311 0.88811493
C    0.13671875 0.69383240 0.89189148
C    0.11225128 0.66329193 0.89281464
C    0.20285797 0.61672211 0.88130188
H    0.08480835 0.66469574 0.89537048
H    0.12945557 0.71971893 0.89342499
H    0.22023010 0.62657928 0.86052704
H    0.21651459 0.61631012 0.90523529
H    0.19332123 0.59159088 0.87549591
C    0.73906708 0.78066254 0.94907379
N    0.71913147 0.80530548 0.97196960
N    0.71530151 0.75415039 0.93314362
C    0.18094635 0.79168701 0.97036743
C    0.17909241 0.75892639 0.94991302
C    0.78219604 0.78094482 0.94344330
H    0.15685272 0.74378204 0.94579315
H    0.15965271 0.80154419 0.98478699
H    0.79340363 0.76190186 0.95957947
H    0.78880310 0.77706909 0.91712952
H    0.79348755 0.80500031 0.95008850
C    0.97194672 0.04085541 0.67286682
N    0.98081207 0.05052948 0.70919037
N    0.96501923 0.00198364 0.66958618
C    0.97884369 0.01655579 0.73007965
C    0.96894073 0.98793030 0.70690155
C    0.96647644 0.07004547 0.64028168
H    0.96541595 0.96305847 0.71499634
H    0.98181915 0.01348877 0.75595856
H    0.94486237 0.06135559 0.62490845
H    0.96247101 0.09562683 0.65072632
H    0.98921204 0.07037354 0.62397766
C    0.78878784 0.03754425 0.85602570
N    0.78433990 0.99848938 0.85312653
N    0.82319641 0.04842377 0.87146759
C    0.81825256 0.98477173 0.86609650
C    0.84040833 0.01417542 0.87929535
C    0.75829315 0.06472778 0.84390259
H    0.86411285 0.01222229 0.89055634
H    0.82391357 0.95848846 0.86769104
H    0.74466705 0.05492401 0.82193756
H    0.73944092 0.06829834 0.86583710
H    0.77040863 0.08951569 0.83737183
C    0.04600525 0.79356384 0.60514832
N    0.03200531 0.76557159 0.58240509
N    0.07216644 0.81667328 0.58565521
C    0.05058289 0.75796509 0.05587006
C    0.07356262 0.78939056 0.05935669
C    0.03643036 0.79638672 0.64675140
H    0.09007263 0.79965210 0.04032135
H    0.04801941 0.74463654 0.03414154
H    0.04008484 0.77217102 0.65899658
H    0.05315399 0.81625366 0.65702820
H    0.00971222 0.80357361 0.65017700
C    0.73021698 0.77686310 0.81601715
N    0.73173523 0.77795410 0.77728271
N    0.71836853 0.74198914 0.83099365
C    0.17238617 0.76911163 0.78404236
C    0.17140961 0.74442291 0.81488800
C    0.74408722 0.81031799 0.84018707
H    0.15173340 0.72675323 0.82156372
H    0.15327454 0.77036285 0.76567841
H    0.73976135 0.80395508 0.86647034
H    0.77036285 0.81623077 0.83423615
H    0.72834015 0.83216095 0.83383179
C    0.98344421 0.00509644 0.04450226
N    0.96431732 0.02492523 0.01685333
N    0.95889282 0.98431396 0.06852722
C    0.92634583 0.01818848 0.02558136
C    0.92295074 0.99497223 0.05622101
C    0.02633667 0.00530243 0.04609680
H    0.89971924 0.98656464 0.06681061
H    0.90622711 0.02967072 0.01194763
H    0.03563690 0.98606110 0.02828217
H    0.03782654 0.02960968 0.03945160
H    0.03279877 0.99946594 0.07189178
C    0.92012787 0.76307678 0.08851624
N    0.93629456 0.73579407 0.58834839
N    0.88774872 0.77771759 0.59632874
C    0.90552521 0.71845245 0.60990906
C    0.87615967 0.74381256 0.61382294
C    0.94079590 0.79119110 0.06066132
H    0.85332489 0.73866272 0.62658691
H    0.90562439 0.69414520 0.62087250
H    0.96350861 0.79974365 0.07104492
H    0.94704437 0.77917480 0.03608704
H    0.92401886 0.81234741 0.05581665
C    0.16966248 0.01802826 0.85269165
N    0.19370270 0.99832153 0.82968140
N    0.14501190 0.03942108 0.83229828
C    0.18500519 0.00898743 0.79318237
C    0.15593719 0.03395081 0.79440308
C    0.17120361 0.01654816 0.89635468
H    0.14492798 0.04442596 0.77278900
H    0.19689941 0.99951172 0.77029419
H    0.15347290 0.03427887 0.90700531
H    0.16361237 0.99112701 0.90642548
H    0.19662476 0.02362823 0.90357971
C    0.00713348 0.67372131 0.67333221
N    0.98950958 0.70346832 0.65571594
N    0.98995209 0.66448975 0.70849609
C    0.96131897 0.71482086 0.68226624
C    0.96170044 0.69157410 0.71290588
C    0.04279327 0.65607452 0.65728760
H    0.94540405 0.69407654 0.73480988
H    0.94525146 0.73597717 0.67945099
H    0.03614807 0.64066315 0.63587189
H    0.06106567 0.67581177 0.64887238
H    0.05355835 0.64013672 0.67719269
C    0.23473358 0.90985870 0.91176605
N    0.73935699 0.94269562 0.90563965
N    0.73675537 0.90434265 0.95885468
C    0.75624847 0.96178436 0.93561554
C    0.75440979 0.93927002 0.96790314
C    0.22802734 0.87520599 0.88672638
H    0.76274109 0.94606781 0.99189758
H    0.76700592 0.98714447 0.93401337
H    0.20114136 0.87335968 0.88083649
H    0.24283600 0.87780762 0.86290741
H    0.23605347 0.85256958 0.89971924
C    0.80177307 0.67205048 0.89186096
N    0.78106689 0.69950867 0.87494659
N    0.83126068 0.65891266 0.86876678
C    0.79921722 0.70410919 0.83891296
C    0.82836914 0.67975616 0.83511353
C    0.79503632 0.65868378 0.93334961
H    0.84471130 0.67828369 0.81358337
H    0.79298401 0.72250366 0.82010651
H    0.77597046 0.63838959 0.93431091
H    0.81771851 0.64972687 0.94382477
H    0.78688049 0.67996979 0.94918823
C    0.04186249 0.91088104 0.10803986
N    0.02830505 0.94561768 0.62795258
N    0.07439423 0.90192413 0.62307739
C    0.04715729 0.94289398 0.66213226
C    0.07405853 0.91587830 0.65896606
C    0.03410339 0.89933014 0.06762695
H    0.08972168 0.90716553 0.67849731
H    0.04129791 0.95601654 0.68395233
H    0.05755615 0.90003967 0.05279541
H    0.02507019 0.87291718 0.06867218
H    0.01571655 0.91542053 0.05662537
C    0.98049927 0.63130951 0.05587006
N    0.99971008 0.60758972 0.03086090
N    0.00273895 0.66268921 0.06452179
C    0.03510284 0.62509155 0.02355194
C    0.03677368 0.65847015 0.04328156
C    0.94174957 0.62229919 0.07395172
H    0.05772400 0.67615509 0.04334259
H    0.05461121 0.61669922 0.00591278
H    0.92321777 0.63940430 0.06443024
H    0.93380737 0.59629822 0.06675720
H    0.94374847 0.62445068 0.10229492
C    0.22685242 0.90344238 0.78581238
N    0.74721527 0.87761688 0.76638031
N    0.74803162 0.92970276 0.80508423
C    0.78475952 0.88889313 0.77252960
C    0.78488159 0.92051697 0.79594421
C    0.18548584 0.90290833 0.79486847
H    0.80696869 0.93466187 0.80322266
H    0.80695343 0.87761688 0.76245880
H    0.17969513 0.91268921 0.82016754
H    0.17356110 0.91844177 0.77621460
H    0.17552185 0.87770081 0.79385376
Ar   0.57167816 0.54018402 0.19510651
Ar   0.14648438 0.30729675 0.85248566
Ar   0.86000824 0.47715759 0.25322723
Ar   0.34941101 0.05670166 0.24623108
Ar   0.82341003 0.87530518 0.38717651
Ar   0.12655640 0.90227509 0.93314362
Ar   0.83584595 0.38309479 0.36686707
Ar   0.45215607 0.89550018 0.51991272
Ar   0.51138306 0.70624542 0.77206421
Ar   0.13003540 0.83094788 0.85556793
Ar   0.21085358 0.11042023 0.76425934
Ar   0.86505127 0.45576477 0.45907593
Ar   0.31904602 0.19439697 0.49287415
Ar   0.57532501 0.48149109 0.77841949
Ar   0.87970734 0.35401154 0.45486450
Ar   0.90737152 0.97570801 0.32294464
Ar   0.18412781 0.63355255 0.78314972
Ar   0.81523895 0.98097992 0.57801819
Ar   0.82195282 0.68470001 0.72132111
Ar   0.33496857 0.01100922 0.73257446
Ar   0.12310791 0.99455261 0.98885345
Ar   0.71862793 0.94806671 0.59899902
Ar   0.91633606 0.46991730 0.34493256
Ar   0.85596466 0.70493317 0.01304626
Ar   0.07281494 0.48324585 0.27069092
Ar   0.83258820 0.18653870 0.01554871
Ar   0.11911774 0.21395111 0.60909271
Ar   0.63230133 0.23812866 0.79631805
Ar   0.07851410 0.72891998 0.44166565
Ar   0.85150146 0.52497101 0.73344421
Ar   0.64556122 0.72482300 0.08860016
Ar   0.82186890 0.05206299 0.97454834
Ar   0.77240753 0.53409576 0.95528412
Ar   0.06671906 0.53390503 0.17691803
Ar   0.12955475 0.72053528 0.58240509
Ar   0.77675629 0.95587158 0.69161224
Ar   0.62820435 0.10491180 0.47219086
Ar   0.93626404 0.41273499 0.52913666
Ar   0.36391449 0.69876099 0.51042938
Ar   0.88106537 0.59194183 0.64727783
Ar   0.34920502 0.50337219 0.23807526
Ar   0.61843872 0.49225616 0.60500336
Ar   0.59213257 0.33054352 0.76501465
Ar   0.61707306 0.48976898 0.49081421
Ar   0.62528992 0.20158386 0.60645294
Ar   0.40900421 0.48683167 0.82156372
Ar   0.12876892 0.40282440 0.90090942
Ar   0.14941406 0.67147064 0.48480988
Ar   0.84165192 0.97807312 0.23500061
Ar   0.88978577 0.88803864 0.24631500
Ar   0.23179626 0.61876678 0.27994537
Ar   0.61109924 0.92462921 0.37838745
Ar   0.39035797 0.72717285 0.79086304
Ar   0.58442688 0.54135132 0.69088745
Ar   0.50599670 0.46518707 0.85280609
Ar   0.64028931 0.81587219 0.36213684
