data_subtitutions
_audit_creation_method    igor
_audit_author_name 'sponge bob'
_cell_length_a    32.5540009
_cell_length_b    32.5540009
_cell_length_c    32.5540009
_cell_angle_alpha    90.0000000
_cell_angle_beta     90.0000000
_cell_angle_gamma    90.0000000
_cell_volume 34499.5234375
_symmetry_space_group_name_hall 'p 1'
_symmetry_space_group_name_h-m 'p 1'
_symmetry_int_tables_number 1
_symmetry_equiv_pos_as_xyz 'x,y,z'
loop_
_atom_site_label
_atom_site_fract_x
_atom_site_fract_y
_atom_site_fract_z
Zn   0.63319397 0.76119232 0.50913239
Zn   0.88320923 0.51117706 0.75914764
Zn   0.63319397 0.51117706 0.75914764
Zn   0.88320923 0.76119232 0.50913239
Zn   0.50820160 0.63616943 0.75914764
Zn   0.75821686 0.88618469 0.50913239
Zn   0.75821686 0.51117706 0.63412476
Zn   0.50820160 0.76119232 0.88414001
Zn   0.75821686 0.63616943 0.50913239
Zn   0.50820160 0.88618469 0.75914764
Zn   0.50820160 0.76119232 0.63412476
Zn   0.75821686 0.51117706 0.88414001
 C   0.82321930 0.99480438 0.69411469
 N   0.81022644 0.51117706 0.65795898
 N   0.85937500 0.51117706 0.70711517
 C   0.83989716 0.53955841 0.64748383
 C   0.86985016 0.53955841 0.67743683
 C   0.80033112 0.96242523 0.71700287
 H   0.89771271 0.55768585 0.67967987
 H   0.83765411 0.55768585 0.61962891
 H   0.77796936 0.97750854 0.73936462
 H   0.78251648 0.94248962 0.69436646
 H   0.82297516 0.94248962 0.73481750
 C   0.57661438 0.74110413 0.94071960
 N   0.56021118 0.76119232 0.90794373
 N   0.60939026 0.76119232 0.95713043
 C   0.58401489 0.79596710 0.90337372
 C   0.61396790 0.79596710 0.93331909
 C   0.56042480 0.70147705 0.95690918
 H   0.63807678 0.81814575 0.93930817
 H   0.57802582 0.81814575 0.87925720
 H   0.53606415 0.70786285 0.98126984
 H   0.54620361 0.68310547 0.93070984
 H   0.58662415 0.68310547 0.97116852
 C   0.69318390 0.52754974 0.69411469
 N   0.70618439 0.51117706 0.65795898
 N   0.65703583 0.51117706 0.70711517
 C   0.67650604 0.98279572 0.64748383
 C   0.64656067 0.98279572 0.67743683
 C   0.71607208 0.55992889 0.71700287
 H   0.61869812 0.96466827 0.67967987
 H   0.67874908 0.96466827 0.61962891
 H   0.73843384 0.54484558 0.73936462
 H   0.73388672 0.57986450 0.69436646
 H   0.69343567 0.57986450 0.73481750
 C   0.93979645 0.74110413 0.94071960
 N   0.95619965 0.76119232 0.90794373
 N   0.90702057 0.76119232 0.95713043
 C   0.93238831 0.79596710 0.90337372
 C   0.90244293 0.79596710 0.93331909
 C   0.95597839 0.70147705 0.95690918
 H   0.87832642 0.81814575 0.93930817
 H   0.93837738 0.81814575 0.87925720
 H   0.93988800 0.67484283 0.94081879
 H   0.99044800 0.69963074 0.95092010
 H   0.94998932 0.69963074 0.99137878
 C   0.56896210 0.75517273 0.56989288
 N   0.56021118 0.76119232 0.61032104
 N   0.60939026 0.76119232 0.56114197
 C   0.59725189 0.77157593 0.62813568
 C   0.62720490 0.77157593 0.59818268
 C   0.53771973 0.74334717 0.53865051
 H   0.65973663 0.77821350 0.60063934
 H   0.59970856 0.77821350 0.66066742
 H   0.53578949 0.70841980 0.53672028
 H   0.00651550 0.75624847 0.54786682
 H   0.54693604 0.75624847 0.00744629
 C   0.82061005 0.52275848 0.82153320
 N   0.81022644 0.51117706 0.86030579
 N   0.85937500 0.51117706 0.81115723
 C   0.84441376 0.99111938 0.87528992
 C   0.87436676 0.99111938 0.84534454
 C   0.79259491 0.54564667 0.79351807
 H   0.90511322 0.97827911 0.84598541
 H   0.84505463 0.97827911 0.90604401
 H   0.77375793 0.52288055 0.77468872
 H   0.77105713 0.56579590 0.81241608
 H   0.81148529 0.56579590 0.77198792
 C   0.94319916 0.77756500 0.57413483
 N   0.95619965 0.76119232 0.61032104
 N   0.90702057 0.76119232 0.56114197
 C   0.92649078 0.73278046 0.62079620
 C   0.89657593 0.73278046 0.59084320
 C   0.96608734 0.80994415 0.55124664
 H   0.86868286 0.71465302 0.58860016
 H   0.92873383 0.71465302 0.64865112
 H   0.95539856 0.84152222 0.56193542
 H   0.00039673 0.80650330 0.55738831
 H   0.95994568 0.80650330 0.51693726
 C   0.69318390 0.99480438 0.82415009
 N   0.70618439 0.51117706 0.86030579
 N   0.65703583 0.51117706 0.81115723
 C   0.67650604 0.53955841 0.87078094
 C   0.64656067 0.53955841 0.84082794
 C   0.71607208 0.96242523 0.80126190
 H   0.61869812 0.55768585 0.83858490
 H   0.67874908 0.55768585 0.89863586
 H   0.73843384 0.97750854 0.77890015
 H   0.73388672 0.94248962 0.82389832
 H   0.69343567 0.94248962 0.78344727
 C   0.69580078 0.82358551 0.52071381
 N   0.70618439 0.86235046 0.50913239
 N   0.65703583 0.81320190 0.50913239
 C   0.67198944 0.87734222 0.98907471
 C   0.64204407 0.84738922 0.98907471
 C   0.72381592 0.79557037 0.54360199
 H   0.61128998 0.84803009 0.97623444
 H   0.67134857 0.90808868 0.97623444
 H   0.74264526 0.77673340 0.52083588
 H   0.74534607 0.81446075 0.56375122
 H   0.70492554 0.77403259 0.56375122
 C   0.94581604 0.57360077 0.74753571
 N   0.95619965 0.61236572 0.75914764
 N   0.90702057 0.56318665 0.75914764
 C   0.92197418 0.62732697 0.77920532
 C   0.89205933 0.59740448 0.77920532
 C   0.97383118 0.54555511 0.72465515
 H   0.86130524 0.59801483 0.79201508
 H   0.92136383 0.65807343 0.79201508
 H   0.96931458 0.55006409 0.69024658
 H   0.00703430 0.55280304 0.73313141
 H   0.96661377 0.51234436 0.73313141
 C   0.52825928 0.69278717 0.82752991
 N   0.50820160 0.70915985 0.86030579
 N   0.50820160 0.66001129 0.81115723
 C   0.97342682 0.68534851 0.86491394
 C   0.97342682 0.65540314 0.83496094
 C   0.56791687 0.70896912 0.81137085
 H   0.95124817 0.63131714 0.82897186
 H   0.95124817 0.69133759 0.88902283
 H   0.56150055 0.73329926 0.78701019
 H   0.58628845 0.72319794 0.83753967
 H   0.58628845 0.68276978 0.79711914
 C   0.74181366 0.94617462 0.57413483
 N   0.75821686 0.95917511 0.61032104
 N   0.75821686 0.90998840 0.56114197
 C   0.78659821 0.92946625 0.62079620
 C   0.78659821 0.89955139 0.59084320
 C   0.70946503 0.96906281 0.55124664
 H   0.80472565 0.87165833 0.58860016
 H   0.80472565 0.93170929 0.64865112
 H   0.67785645 0.95837402 0.56193542
 H   0.71287537 0.00337219 0.55738831
 H   0.71287537 0.96292114 0.51693726
 C   0.57320404 0.94617462 0.74274445
 N   0.56021118 0.90998840 0.75914764
 N   0.60939026 0.95917511 0.75914764
 C   0.58991241 0.89955139 0.78752899
 C   0.61986542 0.92946625 0.78752899
 C   0.55031586 0.96906281 0.71039581
 H   0.64772797 0.93170929 0.80565643
 H   0.58766937 0.87165833 0.80565643
 H   0.56100464 0.95837402 0.67878723
 H   0.51600647 0.96292114 0.71380615
 H   0.55645752 0.00337219 0.71380615
 C   0.82321930 0.69615936 0.52550507
 N   0.81022644 0.66001129 0.50913239
 N   0.85937500 0.70915985 0.50913239
 C   0.83989716 0.64953613 0.98075104
 C   0.86985016 0.67948151 0.98075104
 C   0.80033112 0.71904755 0.55788422
 H   0.89771271 0.68172455 0.96262360
 H   0.83765411 0.62167358 0.96262360
 H   0.77796936 0.74140930 0.54280090
 H   0.78251648 0.69641113 0.57781982
 H   0.82297516 0.73686218 0.57781982
 C   0.51419067 0.70040131 0.69835663
 N   0.50820160 0.70915985 0.65795898
 N   0.50820160 0.66001129 0.70711517
 C   0.99781799 0.67214203 0.64014435
 C   0.99781799 0.64218903 0.67009735
 C   0.52604675 0.73167419 0.72962952
 H   0.99118805 0.60962677 0.66764069
 H   0.99118805 0.66968536 0.60758209
 H   0.56094360 0.73361206 0.73155975
 H   0.51311493 0.76288605 0.72041321
 H   0.51311493 0.72245789 0.76084137
 C   0.77458954 0.94617462 0.94412994
 N   0.75821686 0.95917511 0.90794373
 N   0.75821686 0.90998840 0.95713043
 C   0.72980499 0.92946625 0.89749908
 C   0.72980499 0.89955139 0.92742157
 C   0.80696869 0.96906281 0.96701813
 H   0.71167755 0.87165833 0.92966461
 H   0.71167755 0.93170929 0.86961365
 H   0.83854675 0.95837402 0.95632935
 H   0.80352783 0.00337219 0.96087646
 H   0.80352783 0.96292114 0.00132751
 C   0.69318390 0.69615936 0.99275970
 N   0.70618439 0.66001129 0.50913239
 N   0.65703583 0.70915985 0.50913239
 C   0.67650604 0.64953613 0.53751373
 C   0.64656067 0.67948151 0.53751373
 C   0.71607208 0.71904755 0.96038055
 H   0.61869812 0.68172455 0.55564117
 H   0.67874908 0.62167358 0.55564117
 H   0.73843384 0.74140930 0.97546387
 H   0.73388672 0.69641113 0.94044495
 H   0.69343567 0.73686218 0.94044495
 C   0.93979645 0.94277191 0.77920532
 N   0.95619965 0.90998840 0.75914764
 N   0.90702057 0.95917511 0.75914764
 C   0.93238831 0.90541840 0.72434235
 C   0.90244293 0.93536377 0.72434235
 C   0.95597839 0.95895386 0.81883240
 H   0.87832642 0.94135284 0.70216370
 H   0.93837738 0.88130188 0.70216370
 H   0.93988800 0.94286346 0.84546661
 H   0.99044800 0.95296478 0.82070923
 H   0.94998932 0.99342346 0.82070923
 C   0.77458954 0.57617950 0.57413483
 N   0.75821686 0.61236572 0.56114197
 N   0.75821686 0.56318665 0.61032104
 C   0.72980499 0.62284088 0.59084320
 C   0.72980499 0.59288788 0.62079620
 C   0.80696869 0.55329132 0.55124664
 H   0.71167755 0.59064484 0.64865112
 H   0.71167755 0.65070343 0.58860016
 H   0.79185486 0.53096008 0.52891541
 H   0.82687378 0.57593536 0.53346252
 H   0.82687378 0.53550720 0.57388306
 C   0.00221252 0.82195282 0.81990814
 N   0.50820160 0.86235046 0.81115723
 N   0.50820160 0.81320190 0.86030579
 C   0.51858521 0.88016510 0.84819794
 C   0.51858521 0.85024261 0.87812042
 C   0.99035645 0.79067993 0.78863525
 H   0.52522278 0.85266876 0.91068268
 H   0.52522278 0.91272736 0.85062408
 H   0.95545959 0.78874969 0.78670502
 H   0.00328827 0.79989624 0.75743103
 H   0.00328827 0.75947571 0.79785156
 C   0.57320404 0.57617950 0.77552032
 N   0.56021118 0.61236572 0.75914764
 N   0.60939026 0.56318665 0.75914764
 C   0.58991241 0.62284088 0.73073578
 C   0.61986542 0.59288788 0.73073578
 C   0.55031586 0.55329132 0.80789948
 H   0.64772797 0.59064484 0.71260834
 H   0.58766937 0.65070343 0.71260834
 H   0.56100464 0.56398010 0.83947754
 H   0.51600647 0.55943298 0.80445862
 H   0.55645752 0.51898193 0.80445862
 C   0.82321930 0.82619476 0.99275970
 N   0.81022644 0.86235046 0.50913239
 N   0.85937500 0.81320190 0.50913239
 C   0.83989716 0.87282562 0.53751373
 C   0.86985016 0.84287262 0.53751373
 C   0.80033112 0.80330658 0.96038055
 H   0.89771271 0.84062958 0.55564117
 H   0.83765411 0.90068817 0.55564117
 H   0.77796936 0.78094482 0.97546387
 H   0.78251648 0.82595062 0.94044495
 H   0.82297516 0.78549194 0.94044495
 C   0.74181366 0.57617950 0.94412994
 N   0.75821686 0.56318665 0.90794373
 N   0.75821686 0.61236572 0.95713043
 C   0.78659821 0.59288788 0.89749908
 C   0.78659821 0.62284088 0.92742157
 C   0.70946503 0.55329132 0.96701813
 H   0.80472565 0.65070343 0.92966461
 H   0.80472565 0.59064484 0.86961365
 H   0.67785645 0.56398010 0.95632935
 H   0.71287537 0.51898193 0.96087646
 H   0.71287537 0.55943298 0.00132751
 C   0.98814392 0.82957458 0.69074249
 N   0.50820160 0.81320190 0.65795898
 N   0.50820160 0.86235046 0.70711517
 C   0.54297638 0.83700562 0.65335083
 C   0.54297638 0.86695862 0.68330383
 C   0.94848633 0.81341553 0.70692444
 H   0.56515503 0.89106750 0.68929291
 H   0.56515503 0.83101654 0.62927246
 H   0.92188263 0.82948303 0.69083405
 H   0.94664001 0.77894592 0.70093536
 H   0.94664001 0.81937408 0.74136353
Zn   0.63319397 0.76119232 0.00913239
Zn   0.88320923 0.51117706 0.25914764
Zn   0.63319397 0.51117706 0.25914764
Zn   0.88320923 0.76119232 0.00913239
Zn   0.50820160 0.63616943 0.25914764
Zn   0.75821686 0.88618469 0.00913239
Zn   0.75821686 0.51117706 0.13412476
Zn   0.50820160 0.76119232 0.38414001
Zn   0.75821686 0.63616943 0.00913239
Zn   0.50820160 0.88618469 0.25914764
Zn   0.50820160 0.76119232 0.13412476
Zn   0.75821686 0.51117706 0.38414001
 C   0.82321930 0.99480438 0.19411469
 N   0.81022644 0.51117706 0.15795898
 N   0.85937500 0.51117706 0.20711517
 C   0.83989716 0.53955841 0.14748383
 C   0.86985016 0.53955841 0.17743683
 C   0.80033112 0.96242523 0.21700287
 H   0.89771271 0.55768585 0.17967987
 H   0.83765411 0.55768585 0.11962891
 H   0.77796936 0.97750854 0.23936462
 H   0.78251648 0.94248962 0.19436646
 H   0.82297516 0.94248962 0.23481750
 C   0.57661438 0.74110413 0.44071960
 N   0.56021118 0.76119232 0.40797424
 N   0.60939026 0.76119232 0.45713043
 C   0.58401489 0.79596710 0.40337372
 C   0.61396790 0.79596710 0.43331909
 C   0.56042480 0.70147705 0.45690918
 H   0.63807678 0.81814575 0.43930817
 H   0.57802582 0.81814575 0.37925720
 H   0.53606415 0.70786285 0.48126984
 H   0.54620361 0.68310547 0.43070984
 H   0.58662415 0.68310547 0.47116852
 C   0.69318390 0.52754974 0.19411469
 N   0.70618439 0.51117706 0.15795898
 N   0.65703583 0.51117706 0.20711517
 C   0.67650604 0.98279572 0.14748383
 C   0.64656067 0.98279572 0.17743683
 C   0.71607208 0.55992889 0.21700287
 H   0.61869812 0.96466827 0.17967987
 H   0.67874908 0.96466827 0.11962891
 H   0.73843384 0.54484558 0.23936462
 H   0.73388672 0.57986450 0.19436646
 H   0.69343567 0.57986450 0.23481750
 C   0.93979645 0.74110413 0.44071960
 N   0.95619965 0.76119232 0.40797424
 N   0.90702057 0.76119232 0.45713043
 C   0.93238831 0.79596710 0.40337372
 C   0.90244293 0.79596710 0.43331909
 C   0.95597839 0.70147705 0.45690918
 H   0.87832642 0.81814575 0.43930817
 H   0.93837738 0.81814575 0.37925720
 H   0.93988800 0.67484283 0.44081879
 H   0.99044800 0.69963074 0.45092010
 H   0.94998932 0.69963074 0.49137878
 C   0.56896210 0.75517273 0.06989288
 N   0.56021118 0.76119232 0.11032104
 N   0.60939026 0.76119232 0.06114197
 C   0.59725189 0.77157593 0.12813568
 C   0.62720490 0.77157593 0.09818268
 C   0.53771973 0.74334717 0.03865051
 H   0.65973663 0.77821350 0.10063934
 H   0.59970856 0.77821350 0.16069794
 H   0.53578949 0.70841980 0.03672028
 H   0.00651550 0.75624847 0.04786682
 H   0.54693604 0.75624847 0.50744629
 C   0.82061005 0.52275848 0.32153320
 N   0.81022644 0.51117706 0.36030579
 N   0.85937500 0.51117706 0.31115723
 C   0.84441376 0.99111938 0.37528992
 C   0.87436676 0.99111938 0.34534454
 C   0.79259491 0.54564667 0.29351807
 H   0.90511322 0.97827911 0.34598541
 H   0.84505463 0.97827911 0.40604401
 H   0.77375793 0.52288055 0.27468872
 H   0.77105713 0.56579590 0.31241608
 H   0.81148529 0.56579590 0.27198792
 C   0.94319916 0.77756500 0.07413483
 N   0.95619965 0.76119232 0.11032104
 N   0.90702057 0.76119232 0.06114197
 C   0.92649078 0.73278046 0.12079620
 C   0.89657593 0.73278046 0.09084320
 C   0.96608734 0.80994415 0.05124664
 H   0.86868286 0.71465302 0.08860016
 H   0.92873383 0.71465302 0.14865112
 H   0.95539856 0.84152222 0.06193542
 H   0.00039673 0.80650330 0.05738831
 H   0.95994568 0.80650330 0.01696777
 C   0.69318390 0.99480438 0.32415009
 N   0.70618439 0.51117706 0.36030579
 N   0.65703583 0.51117706 0.31115723
 C   0.67650604 0.53955841 0.37078094
 C   0.64656067 0.53955841 0.34082794
 C   0.71607208 0.96242523 0.30126190
 H   0.61869812 0.55768585 0.33858490
 H   0.67874908 0.55768585 0.39863586
 H   0.73843384 0.97750854 0.27893066
 H   0.73388672 0.94248962 0.32389832
 H   0.69343567 0.94248962 0.28347778
 C   0.69580078 0.82358551 0.02071381
 N   0.70618439 0.86235046 0.00913239
 N   0.65703583 0.81320190 0.00913239
 C   0.67198944 0.87734222 0.48907471
 C   0.64204407 0.84738922 0.48907471
 C   0.72381592 0.79557037 0.04360199
 H   0.61128998 0.84803009 0.47623444
 H   0.67134857 0.90808868 0.47623444
 H   0.74264526 0.77673340 0.02083588
 H   0.74534607 0.81446075 0.06375122
 H   0.70492554 0.77403259 0.06375122
 C   0.94581604 0.57360077 0.24756622
 N   0.95619965 0.61236572 0.25914764
 N   0.90702057 0.56318665 0.25914764
 C   0.92197418 0.62732697 0.27920532
 C   0.89205933 0.59740448 0.27920532
 C   0.97383118 0.54555511 0.22468567
 H   0.86130524 0.59801483 0.29201508
 H   0.92136383 0.65807343 0.29201508
 H   0.96931458 0.55006409 0.19024658
 H   0.00703430 0.55280304 0.23313141
 H   0.96661377 0.51234436 0.23313141
 C   0.52825928 0.69278717 0.32756042
 N   0.50820160 0.70915985 0.36030579
 N   0.50820160 0.66001129 0.31115723
 C   0.97342682 0.68534851 0.36491394
 C   0.97342682 0.65540314 0.33496094
 C   0.56791687 0.70896912 0.31137085
 H   0.95124817 0.63131714 0.32897186
 H   0.95124817 0.69133759 0.38902283
 H   0.56150055 0.73329926 0.28701019
 H   0.58628845 0.72319794 0.33757019
 H   0.58628845 0.68276978 0.29711914
 C   0.74181366 0.94617462 0.07413483
 N   0.75821686 0.95917511 0.11032104
 N   0.75821686 0.90998840 0.06114197
 C   0.78659821 0.92946625 0.12079620
 C   0.78659821 0.89955139 0.09084320
 C   0.70946503 0.96906281 0.05124664
 H   0.80472565 0.87165833 0.08860016
 H   0.80472565 0.93170929 0.14865112
 H   0.67785645 0.95837402 0.06193542
 H   0.71287537 0.00337219 0.05738831
 H   0.71287537 0.96292114 0.01696777
 C   0.57320404 0.94617462 0.24274445
 N   0.56021118 0.90998840 0.25914764
 N   0.60939026 0.95917511 0.25914764
 C   0.58991241 0.89955139 0.28752899
 C   0.61986542 0.92946625 0.28752899
 C   0.55031586 0.96906281 0.21039581
 H   0.64772797 0.93170929 0.30565643
 H   0.58766937 0.87165833 0.30565643
 H   0.56100464 0.95837402 0.17878723
 H   0.51600647 0.96292114 0.21380615
 H   0.55645752 0.00337219 0.21380615
 C   0.82321930 0.69615936 0.02553558
 N   0.81022644 0.66001129 0.00913239
 N   0.85937500 0.70915985 0.00913239
 C   0.83989716 0.64953613 0.48075104
 C   0.86985016 0.67948151 0.48075104
 C   0.80033112 0.71904755 0.05788422
 H   0.89771271 0.68172455 0.46262360
 H   0.83765411 0.62167358 0.46262360
 H   0.77796936 0.74140930 0.04280090
 H   0.78251648 0.69641113 0.07781982
 H   0.82297516 0.73686218 0.07781982
 C   0.51419067 0.70040131 0.19835663
 N   0.50820160 0.70915985 0.15795898
 N   0.50820160 0.66001129 0.20711517
 C   0.99781799 0.67214203 0.14014435
 C   0.99781799 0.64218903 0.17009735
 C   0.52604675 0.73167419 0.22962952
 H   0.99118805 0.60962677 0.16764069
 H   0.99118805 0.66968536 0.10758209
 H   0.56094360 0.73361206 0.23155975
 H   0.51311493 0.76288605 0.22041321
 H   0.51311493 0.72245789 0.26084137
 C   0.77458954 0.94617462 0.44412994
 N   0.75821686 0.95917511 0.40797424
 N   0.75821686 0.90998840 0.45713043
 C   0.72980499 0.92946625 0.39749908
 C   0.72980499 0.89955139 0.42745209
 C   0.80696869 0.96906281 0.46701813
 H   0.71167755 0.87165833 0.42966461
 H   0.71167755 0.93170929 0.36964417
 H   0.83854675 0.95837402 0.45635986
 H   0.80352783 0.00337219 0.46087646
 H   0.80352783 0.96292114 0.50132751
 C   0.69318390 0.69615936 0.49275970
 N   0.70618439 0.66001129 0.00913239
 N   0.65703583 0.70915985 0.00913239
 C   0.67650604 0.64953613 0.03751373
 C   0.64656067 0.67948151 0.03751373
 C   0.71607208 0.71904755 0.46038055
 H   0.61869812 0.68172455 0.05564117
 H   0.67874908 0.62167358 0.05564117
 H   0.73843384 0.74140930 0.47546387
 H   0.73388672 0.69641113 0.44047546
 H   0.69343567 0.73686218 0.44047546
 C   0.93979645 0.94277191 0.27920532
 N   0.95619965 0.90998840 0.25914764
 N   0.90702057 0.95917511 0.25914764
 C   0.93238831 0.90541840 0.22437286
 C   0.90244293 0.93536377 0.22437286
 C   0.95597839 0.95895386 0.31883240
 H   0.87832642 0.94135284 0.20216370
 H   0.93837738 0.88130188 0.20216370
 H   0.93988800 0.94286346 0.34546661
 H   0.99044800 0.95296478 0.32070923
 H   0.94998932 0.99342346 0.32070923
 C   0.77458954 0.57617950 0.07413483
 N   0.75821686 0.61236572 0.06114197
 N   0.75821686 0.56318665 0.11032104
 C   0.72980499 0.62284088 0.09084320
 C   0.72980499 0.59288788 0.12079620
 C   0.80696869 0.55329132 0.05124664
 H   0.71167755 0.59064484 0.14865112
 H   0.71167755 0.65070343 0.08860016
 H   0.79185486 0.53096008 0.02891541
 H   0.82687378 0.57593536 0.03346252
 H   0.82687378 0.53550720 0.07388306
 C   0.00221252 0.82195282 0.31990814
 N   0.50820160 0.86235046 0.31115723
 N   0.50820160 0.81320190 0.36030579
 C   0.51858521 0.88016510 0.34819794
 C   0.51858521 0.85024261 0.37812042
 C   0.99035645 0.79067993 0.28863525
 H   0.52522278 0.85266876 0.41068268
 H   0.52522278 0.91272736 0.35062408
 H   0.95545959 0.78874969 0.28670502
 H   0.00328827 0.79989624 0.25743103
 H   0.00328827 0.75947571 0.29785156
 C   0.57320404 0.57617950 0.27552032
 N   0.56021118 0.61236572 0.25914764
 N   0.60939026 0.56318665 0.25914764
 C   0.58991241 0.62284088 0.23073578
 C   0.61986542 0.59288788 0.23073578
 C   0.55031586 0.55329132 0.30789948
 H   0.64772797 0.59064484 0.21260834
 H   0.58766937 0.65070343 0.21260834
 H   0.56100464 0.56398010 0.33947754
 H   0.51600647 0.55943298 0.30445862
 H   0.55645752 0.51898193 0.30445862
 C   0.82321930 0.82619476 0.49275970
 N   0.81022644 0.86235046 0.00913239
 N   0.85937500 0.81320190 0.00913239
 C   0.83989716 0.87282562 0.03751373
 C   0.86985016 0.84287262 0.03751373
 C   0.80033112 0.80330658 0.46038055
 H   0.89771271 0.84062958 0.05564117
 H   0.83765411 0.90068817 0.05564117
 H   0.77796936 0.78094482 0.47546387
 H   0.78251648 0.82595062 0.44047546
 H   0.82297516 0.78549194 0.44047546
 C   0.74181366 0.57617950 0.44412994
 N   0.75821686 0.56318665 0.40797424
 N   0.75821686 0.61236572 0.45713043
 C   0.78659821 0.59288788 0.39749908
 C   0.78659821 0.62284088 0.42745209
 C   0.70946503 0.55329132 0.46701813
 H   0.80472565 0.65070343 0.42966461
 H   0.80472565 0.59064484 0.36964417
 H   0.67785645 0.56398010 0.45635986
 H   0.71287537 0.51898193 0.46087646
 H   0.71287537 0.55943298 0.50132751
 C   0.98814392 0.82957458 0.19073486
 N   0.50820160 0.81320190 0.15795898
 N   0.50820160 0.86235046 0.20711517
 C   0.54297638 0.83700562 0.15338898
 C   0.54297638 0.86695862 0.18330383
 C   0.94848633 0.81341553 0.20692444
 H   0.56515503 0.89106750 0.18929291
 H   0.56515503 0.83101654 0.12927246
 H   0.92188263 0.82948303 0.19083405
 H   0.94664001 0.77894592 0.20093536
 H   0.94664001 0.81937408 0.24136353
Zn   0.63319397 0.26119232 0.50913239
Zn   0.88320923 0.01117706 0.75914764
Zn   0.63319397 0.01117706 0.75914764
Zn   0.88320923 0.26119232 0.50913239
Zn   0.50820160 0.13616943 0.75914764
Zn   0.75821686 0.38618469 0.50913239
Zn   0.75821686 0.01117706 0.63412476
Zn   0.50820160 0.26119232 0.88414001
Zn   0.75821686 0.13616943 0.50913239
Zn   0.50820160 0.38618469 0.75914764
Zn   0.50820160 0.26119232 0.63412476
Zn   0.75821686 0.01117706 0.88414001
 C   0.82321930 0.49480438 0.69411469
 N   0.81022644 0.01117706 0.65795898
 N   0.85937500 0.01117706 0.70711517
 C   0.83989716 0.03955841 0.64748383
 C   0.86985016 0.03955841 0.67743683
 C   0.80033112 0.46242523 0.71700287
 H   0.89771271 0.05768585 0.67967987
 H   0.83765411 0.05768585 0.61962891
 H   0.77796936 0.47750854 0.73936462
 H   0.78251648 0.44252014 0.69436646
 H   0.82297516 0.44252014 0.73481750
 C   0.57661438 0.24110413 0.94071960
 N   0.56021118 0.26119232 0.90794373
 N   0.60939026 0.26119232 0.95713043
 C   0.58401489 0.29596710 0.90337372
 C   0.61396790 0.29596710 0.93331909
 C   0.56042480 0.20147705 0.95690918
 H   0.63807678 0.31814575 0.93930817
 H   0.57802582 0.31814575 0.87925720
 H   0.53606415 0.20786285 0.98126984
 H   0.54620361 0.18310547 0.93070984
 H   0.58662415 0.18310547 0.97116852
 C   0.69318390 0.02758026 0.69411469
 N   0.70618439 0.01117706 0.65795898
 N   0.65703583 0.01117706 0.70711517
 C   0.67650604 0.48279572 0.64748383
 C   0.64656067 0.48279572 0.67743683
 C   0.71607208 0.05992889 0.71700287
 H   0.61869812 0.46466827 0.67967987
 H   0.67874908 0.46466827 0.61962891
 H   0.73843384 0.04484558 0.73936462
 H   0.73388672 0.07986450 0.69436646
 H   0.69343567 0.07986450 0.73481750
 C   0.93979645 0.24110413 0.94071960
 N   0.95619965 0.26119232 0.90794373
 N   0.90702057 0.26119232 0.95713043
 C   0.93238831 0.29596710 0.90337372
 C   0.90244293 0.29596710 0.93331909
 C   0.95597839 0.20147705 0.95690918
 H   0.87832642 0.31814575 0.93930817
 H   0.93837738 0.31814575 0.87925720
 H   0.93988800 0.17487335 0.94081879
 H   0.99044800 0.19963074 0.95092010
 H   0.94998932 0.19963074 0.99137878
 C   0.56896210 0.25517273 0.56989288
 N   0.56021118 0.26119232 0.61032104
 N   0.60939026 0.26119232 0.56114197
 C   0.59725189 0.27157593 0.62813568
 C   0.62720490 0.27157593 0.59818268
 C   0.53771973 0.24334717 0.53865051
 H   0.65973663 0.27821350 0.60063934
 H   0.59970856 0.27821350 0.66066742
 H   0.53578949 0.20841980 0.53672028
 H   0.00651550 0.25624847 0.54786682
 H   0.54693604 0.25624847 0.00744629
 C   0.82061005 0.02275848 0.82153320
 N   0.81022644 0.01117706 0.86030579
 N   0.85937500 0.01117706 0.81115723
 C   0.84441376 0.49111938 0.87528992
 C   0.87436676 0.49111938 0.84534454
 C   0.79259491 0.04564667 0.79351807
 H   0.90511322 0.47827911 0.84598541
 H   0.84505463 0.47827911 0.90604401
 H   0.77375793 0.02288055 0.77468872
 H   0.77105713 0.06579590 0.81241608
 H   0.81148529 0.06579590 0.77198792
 C   0.94319916 0.27756500 0.57413483
 N   0.95619965 0.26119232 0.61032104
 N   0.90702057 0.26119232 0.56114197
 C   0.92649078 0.23278046 0.62079620
 C   0.89657593 0.23278046 0.59084320
 C   0.96608734 0.30994415 0.55124664
 H   0.86868286 0.21465302 0.58860016
 H   0.92873383 0.21465302 0.64865112
 H   0.95539856 0.34152222 0.56193542
 H   0.00039673 0.30650330 0.55738831
 H   0.95994568 0.30650330 0.51693726
 C   0.69318390 0.49480438 0.82415009
 N   0.70618439 0.01117706 0.86030579
 N   0.65703583 0.01117706 0.81115723
 C   0.67650604 0.03955841 0.87078094
 C   0.64656067 0.03955841 0.84082794
 C   0.71607208 0.46242523 0.80126190
 H   0.61869812 0.05768585 0.83858490
 H   0.67874908 0.05768585 0.89863586
 H   0.73843384 0.47750854 0.77890015
 H   0.73388672 0.44252014 0.82389832
 H   0.69343567 0.44252014 0.78344727
 C   0.69580078 0.32358551 0.52071381
 N   0.70618439 0.36235046 0.50913239
 N   0.65703583 0.31320190 0.50913239
 C   0.67198944 0.37734222 0.98907471
 C   0.64204407 0.34738922 0.98907471
 C   0.72381592 0.29557037 0.54360199
 H   0.61128998 0.34803009 0.97623444
 H   0.67134857 0.40808868 0.97623444
 H   0.74264526 0.27673340 0.52083588
 H   0.74534607 0.31446075 0.56375122
 H   0.70492554 0.27403259 0.56375122
 C   0.94581604 0.07360077 0.74753571
 N   0.95619965 0.11236572 0.75914764
 N   0.90702057 0.06318665 0.75914764
 C   0.92197418 0.12732697 0.77920532
 C   0.89205933 0.09740448 0.77920532
 C   0.97383118 0.04555511 0.72465515
 H   0.86130524 0.09804535 0.79201508
 H   0.92136383 0.15807343 0.79201508
 H   0.96931458 0.05006409 0.69024658
 H   0.00703430 0.05280304 0.73313141
 H   0.96661377 0.01234436 0.73313141
 C   0.52825928 0.19278717 0.82752991
 N   0.50820160 0.20915985 0.86030579
 N   0.50820160 0.16001129 0.81115723
 C   0.97342682 0.18534851 0.86491394
 C   0.97342682 0.15543365 0.83496094
 C   0.56791687 0.20896912 0.81137085
 H   0.95124817 0.13131714 0.82897186
 H   0.95124817 0.19133759 0.88902283
 H   0.56150055 0.23329926 0.78701019
 H   0.58628845 0.22319794 0.83753967
 H   0.58628845 0.18276978 0.79711914
 C   0.74181366 0.44617462 0.57413483
 N   0.75821686 0.45917511 0.61032104
 N   0.75821686 0.41002655 0.56114197
 C   0.78659821 0.42949677 0.62079620
 C   0.78659821 0.39955139 0.59084320
 C   0.70946503 0.46906281 0.55124664
 H   0.80472565 0.37168884 0.58860016
 H   0.80472565 0.43170929 0.64865112
 H   0.67785645 0.45840454 0.56193542
 H   0.71287537 0.50337219 0.55738831
 H   0.71287537 0.46292114 0.51693726
 C   0.57320404 0.44617462 0.74274445
 N   0.56021118 0.41002655 0.75914764
 N   0.60939026 0.45917511 0.75914764
 C   0.58991241 0.39955139 0.78752899
 C   0.61986542 0.42949677 0.78752899
 C   0.55031586 0.46906281 0.71039581
 H   0.64772797 0.43170929 0.80565643
 H   0.58766937 0.37168884 0.80565643
 H   0.56100464 0.45840454 0.67878723
 H   0.51600647 0.46292114 0.71380615
 H   0.55645752 0.50337219 0.71380615
 C   0.82321930 0.19615936 0.52550507
 N   0.81022644 0.16001129 0.50913239
 N   0.85937500 0.20915985 0.50913239
 C   0.83989716 0.14953613 0.98075104
 C   0.86985016 0.17948151 0.98075104
 C   0.80033112 0.21904755 0.55788422
 H   0.89771271 0.18172455 0.96262360
 H   0.83765411 0.12167358 0.96262360
 H   0.77796936 0.24140930 0.54280090
 H   0.78251648 0.19641113 0.57781982
 H   0.82297516 0.23686218 0.57781982
 C   0.51419067 0.20040131 0.69835663
 N   0.50820160 0.20915985 0.65795898
 N   0.50820160 0.16001129 0.70711517
 C   0.99781799 0.17214203 0.64014435
 C   0.99781799 0.14218903 0.67009735
 C   0.52604675 0.23167419 0.72962952
 H   0.99118805 0.10962677 0.66764069
 H   0.99118805 0.16968536 0.60758209
 H   0.56094360 0.23361206 0.73155975
 H   0.51311493 0.26288605 0.72041321
 H   0.51311493 0.22245789 0.76084137
 C   0.77458954 0.44617462 0.94412994
 N   0.75821686 0.45917511 0.90794373
 N   0.75821686 0.41002655 0.95713043
 C   0.72980499 0.42949677 0.89749908
 C   0.72980499 0.39955139 0.92742157
 C   0.80696869 0.46906281 0.96701813
 H   0.71167755 0.37168884 0.92966461
 H   0.71167755 0.43170929 0.86961365
 H   0.83854675 0.45840454 0.95632935
 H   0.80352783 0.50337219 0.96087646
 H   0.80352783 0.46292114 0.00132751
 C   0.69318390 0.19615936 0.99275970
 N   0.70618439 0.16001129 0.50913239
 N   0.65703583 0.20915985 0.50913239
 C   0.67650604 0.14953613 0.53751373
 C   0.64656067 0.17948151 0.53751373
 C   0.71607208 0.21904755 0.96038055
 H   0.61869812 0.18172455 0.55564117
 H   0.67874908 0.12167358 0.55564117
 H   0.73843384 0.24140930 0.97546387
 H   0.73388672 0.19641113 0.94044495
 H   0.69343567 0.23686218 0.94044495
 C   0.93979645 0.44277191 0.77920532
 N   0.95619965 0.41002655 0.75914764
 N   0.90702057 0.45917511 0.75914764
 C   0.93238831 0.40541840 0.72434235
 C   0.90244293 0.43536377 0.72434235
 C   0.95597839 0.45895386 0.81883240
 H   0.87832642 0.44135284 0.70216370
 H   0.93837738 0.38130188 0.70216370
 H   0.93988800 0.44286346 0.84546661
 H   0.99044800 0.45296478 0.82070923
 H   0.94998932 0.49342346 0.82070923
 C   0.77458954 0.07617950 0.57413483
 N   0.75821686 0.11236572 0.56114197
 N   0.75821686 0.06318665 0.61032104
 C   0.72980499 0.12284088 0.59084320
 C   0.72980499 0.09288788 0.62079620
 C   0.80696869 0.05329132 0.55124664
 H   0.71167755 0.09064484 0.64865112
 H   0.71167755 0.15070343 0.58860016
 H   0.79185486 0.03096008 0.52891541
 H   0.82687378 0.07593536 0.53346252
 H   0.82687378 0.03550720 0.57388306
 C   0.00221252 0.32195282 0.81990814
 N   0.50820160 0.36235046 0.81115723
 N   0.50820160 0.31320190 0.86030579
 C   0.51858521 0.38016510 0.84819794
 C   0.51858521 0.35024261 0.87812042
 C   0.99035645 0.29067993 0.78863525
 H   0.52522278 0.35266876 0.91068268
 H   0.52522278 0.41272736 0.85062408
 H   0.95545959 0.28874969 0.78670502
 H   0.00328827 0.29989624 0.75743103
 H   0.00328827 0.25947571 0.79785156
 C   0.57320404 0.07617950 0.77552032
 N   0.56021118 0.11236572 0.75914764
 N   0.60939026 0.06318665 0.75914764
 C   0.58991241 0.12284088 0.73073578
 C   0.61986542 0.09288788 0.73073578
 C   0.55031586 0.05329132 0.80789948
 H   0.64772797 0.09064484 0.71260834
 H   0.58766937 0.15070343 0.71260834
 H   0.56100464 0.06398010 0.83947754
 H   0.51600647 0.05943298 0.80445862
 H   0.55645752 0.01901245 0.80445862
 C   0.82321930 0.32619476 0.99275970
 N   0.81022644 0.36235046 0.50913239
 N   0.85937500 0.31320190 0.50913239
 C   0.83989716 0.37282562 0.53751373
 C   0.86985016 0.34287262 0.53751373
 C   0.80033112 0.30330658 0.96038055
 H   0.89771271 0.34062958 0.55564117
 H   0.83765411 0.40068817 0.55564117
 H   0.77796936 0.28097534 0.97546387
 H   0.78251648 0.32595062 0.94044495
 H   0.82297516 0.28552246 0.94044495
 C   0.74181366 0.07617950 0.94412994
 N   0.75821686 0.06318665 0.90794373
 N   0.75821686 0.11236572 0.95713043
 C   0.78659821 0.09288788 0.89749908
 C   0.78659821 0.12284088 0.92742157
 C   0.70946503 0.05329132 0.96701813
 H   0.80472565 0.15070343 0.92966461
 H   0.80472565 0.09064484 0.86961365
 H   0.67785645 0.06398010 0.95632935
 H   0.71287537 0.01901245 0.96087646
 H   0.71287537 0.05943298 0.00132751
 C   0.98814392 0.32960510 0.69074249
 N   0.50820160 0.31320190 0.65795898
 N   0.50820160 0.36235046 0.70711517
 C   0.54297638 0.33700562 0.65335083
 C   0.54297638 0.36695862 0.68330383
 C   0.94848633 0.31341553 0.70692444
 H   0.56515503 0.39106750 0.68929291
 H   0.56515503 0.33101654 0.62927246
 H   0.92188263 0.32948303 0.69083405
 H   0.94664001 0.27894592 0.70093536
 H   0.94664001 0.31937408 0.74136353
Zn   0.63319397 0.26119232 0.00913239
Zn   0.88320923 0.01117706 0.25914764
Zn   0.63319397 0.01117706 0.25914764
Zn   0.88320923 0.26119232 0.00913239
Zn   0.50820160 0.13616943 0.25914764
Zn   0.75821686 0.38618469 0.00913239
Zn   0.75821686 0.01117706 0.13412476
Zn   0.50820160 0.26119232 0.38414001
Zn   0.75821686 0.13616943 0.00913239
Zn   0.50820160 0.38618469 0.25914764
Zn   0.50820160 0.26119232 0.13412476
Zn   0.75821686 0.01117706 0.38414001
 C   0.82321930 0.49480438 0.19411469
 N   0.81022644 0.01117706 0.15795898
 N   0.85937500 0.01117706 0.20711517
 C   0.83989716 0.03955841 0.14748383
 C   0.86985016 0.03955841 0.17743683
 C   0.80033112 0.46242523 0.21700287
 H   0.89771271 0.05768585 0.17967987
 H   0.83765411 0.05768585 0.11962891
 H   0.77796936 0.47750854 0.23936462
 H   0.78251648 0.44252014 0.19436646
 H   0.82297516 0.44252014 0.23481750
 C   0.57661438 0.24110413 0.44071960
 N   0.56021118 0.26119232 0.40797424
 N   0.60939026 0.26119232 0.45713043
 C   0.58401489 0.29596710 0.40337372
 C   0.61396790 0.29596710 0.43331909
 C   0.56042480 0.20147705 0.45690918
 H   0.63807678 0.31814575 0.43930817
 H   0.57802582 0.31814575 0.37925720
 H   0.53606415 0.20786285 0.48126984
 H   0.54620361 0.18310547 0.43070984
 H   0.58662415 0.18310547 0.47116852
 C   0.69318390 0.02758026 0.19411469
 N   0.70618439 0.01117706 0.15795898
 N   0.65703583 0.01117706 0.20711517
 C   0.67650604 0.48279572 0.14748383
 C   0.64656067 0.48279572 0.17743683
 C   0.71607208 0.05992889 0.21700287
 H   0.61869812 0.46466827 0.17967987
 H   0.67874908 0.46466827 0.11962891
 H   0.73843384 0.04484558 0.23936462
 H   0.73388672 0.07986450 0.19436646
 H   0.69343567 0.07986450 0.23481750
 C   0.93979645 0.24110413 0.44071960
 N   0.95619965 0.26119232 0.40797424
 N   0.90702057 0.26119232 0.45713043
 C   0.93238831 0.29596710 0.40337372
 C   0.90244293 0.29596710 0.43331909
 C   0.95597839 0.20147705 0.45690918
 H   0.87832642 0.31814575 0.43930817
 H   0.93837738 0.31814575 0.37925720
 H   0.93988800 0.17487335 0.44081879
 H   0.99044800 0.19963074 0.45092010
 H   0.94998932 0.19963074 0.49137878
 C   0.56896210 0.25517273 0.06989288
 N   0.56021118 0.26119232 0.11032104
 N   0.60939026 0.26119232 0.06114197
 C   0.59725189 0.27157593 0.12813568
 C   0.62720490 0.27157593 0.09818268
 C   0.53771973 0.24334717 0.03865051
 H   0.65973663 0.27821350 0.10063934
 H   0.59970856 0.27821350 0.16069794
 H   0.53578949 0.20841980 0.03672028
 H   0.00651550 0.25624847 0.04786682
 H   0.54693604 0.25624847 0.50744629
 C   0.82061005 0.02275848 0.32153320
 N   0.81022644 0.01117706 0.36030579
 N   0.85937500 0.01117706 0.31115723
 C   0.84441376 0.49111938 0.37528992
 C   0.87436676 0.49111938 0.34534454
 C   0.79259491 0.04564667 0.29351807
 H   0.90511322 0.47827911 0.34598541
 H   0.84505463 0.47827911 0.40604401
 H   0.77375793 0.02288055 0.27468872
 H   0.77105713 0.06579590 0.31241608
 H   0.81148529 0.06579590 0.27198792
 C   0.94319916 0.27756500 0.07413483
 N   0.95619965 0.26119232 0.11032104
 N   0.90702057 0.26119232 0.06114197
 C   0.92649078 0.23278046 0.12079620
 C   0.89657593 0.23278046 0.09084320
 C   0.96608734 0.30994415 0.05124664
 H   0.86868286 0.21465302 0.08860016
 H   0.92873383 0.21465302 0.14865112
 H   0.95539856 0.34152222 0.06193542
 H   0.00039673 0.30650330 0.05738831
 H   0.95994568 0.30650330 0.01696777
 C   0.69318390 0.49480438 0.32415009
 N   0.70618439 0.01117706 0.36030579
 N   0.65703583 0.01117706 0.31115723
 C   0.67650604 0.03955841 0.37078094
 C   0.64656067 0.03955841 0.34082794
 C   0.71607208 0.46242523 0.30126190
 H   0.61869812 0.05768585 0.33858490
 H   0.67874908 0.05768585 0.39863586
 H   0.73843384 0.47750854 0.27893066
 H   0.73388672 0.44252014 0.32389832
 H   0.69343567 0.44252014 0.28347778
 C   0.69580078 0.32358551 0.02071381
 N   0.70618439 0.36235046 0.00913239
 N   0.65703583 0.31320190 0.00913239
 C   0.67198944 0.37734222 0.48907471
 C   0.64204407 0.34738922 0.48907471
 C   0.72381592 0.29557037 0.04360199
 H   0.61128998 0.34803009 0.47623444
 H   0.67134857 0.40808868 0.47623444
 H   0.74264526 0.27673340 0.02083588
 H   0.74534607 0.31446075 0.06375122
 H   0.70492554 0.27403259 0.06375122
 C   0.94581604 0.07360077 0.24756622
 N   0.95619965 0.11236572 0.25914764
 N   0.90702057 0.06318665 0.25914764
 C   0.92197418 0.12732697 0.27920532
 C   0.89205933 0.09740448 0.27920532
 C   0.97383118 0.04555511 0.22468567
 H   0.86130524 0.09804535 0.29201508
 H   0.92136383 0.15807343 0.29201508
 H   0.96931458 0.05006409 0.19024658
 H   0.00703430 0.05280304 0.23313141
 H   0.96661377 0.01234436 0.23313141
 C   0.52825928 0.19278717 0.32756042
 N   0.50820160 0.20915985 0.36030579
 N   0.50820160 0.16001129 0.31115723
 C   0.97342682 0.18534851 0.36491394
 C   0.97342682 0.15543365 0.33496094
 C   0.56791687 0.20896912 0.31137085
 H   0.95124817 0.13131714 0.32897186
 H   0.95124817 0.19133759 0.38902283
 H   0.56150055 0.23329926 0.28701019
 H   0.58628845 0.22319794 0.33757019
 H   0.58628845 0.18276978 0.29711914
 C   0.74181366 0.44617462 0.07413483
 N   0.75821686 0.45917511 0.11032104
 N   0.75821686 0.41002655 0.06114197
 C   0.78659821 0.42949677 0.12079620
 C   0.78659821 0.39955139 0.09084320
 C   0.70946503 0.46906281 0.05124664
 H   0.80472565 0.37168884 0.08860016
 H   0.80472565 0.43170929 0.14865112
 H   0.67785645 0.45840454 0.06193542
 H   0.71287537 0.50337219 0.05738831
 H   0.71287537 0.46292114 0.01696777
 C   0.57320404 0.44617462 0.24274445
 N   0.56021118 0.41002655 0.25914764
 N   0.60939026 0.45917511 0.25914764
 C   0.58991241 0.39955139 0.28752899
 C   0.61986542 0.42949677 0.28752899
 C   0.55031586 0.46906281 0.21039581
 H   0.64772797 0.43170929 0.30565643
 H   0.58766937 0.37168884 0.30565643
 H   0.56100464 0.45840454 0.17878723
 H   0.51600647 0.46292114 0.21380615
 H   0.55645752 0.50337219 0.21380615
 C   0.82321930 0.19615936 0.02553558
 N   0.81022644 0.16001129 0.00913239
 N   0.85937500 0.20915985 0.00913239
 C   0.83989716 0.14953613 0.48075104
 C   0.86985016 0.17948151 0.48075104
 C   0.80033112 0.21904755 0.05788422
 H   0.89771271 0.18172455 0.46262360
 H   0.83765411 0.12167358 0.46262360
 H   0.77796936 0.24140930 0.04280090
 H   0.78251648 0.19641113 0.07781982
 H   0.82297516 0.23686218 0.07781982
 C   0.51419067 0.20040131 0.19835663
 N   0.50820160 0.20915985 0.15795898
 N   0.50820160 0.16001129 0.20711517
 C   0.99781799 0.17214203 0.14014435
 C   0.99781799 0.14218903 0.17009735
 C   0.52604675 0.23167419 0.22962952
 H   0.99118805 0.10962677 0.16764069
 H   0.99118805 0.16968536 0.10758209
 H   0.56094360 0.23361206 0.23155975
 H   0.51311493 0.26288605 0.22041321
 H   0.51311493 0.22245789 0.26084137
 C   0.77458954 0.44617462 0.44412994
 N   0.75821686 0.45917511 0.40797424
 N   0.75821686 0.41002655 0.45713043
 C   0.72980499 0.42949677 0.39749908
 C   0.72980499 0.39955139 0.42745209
 C   0.80696869 0.46906281 0.46701813
 H   0.71167755 0.37168884 0.42966461
 H   0.71167755 0.43170929 0.36964417
 H   0.83854675 0.45840454 0.45635986
 H   0.80352783 0.50337219 0.46087646
 H   0.80352783 0.46292114 0.50132751
 C   0.69318390 0.19615936 0.49275970
 N   0.70618439 0.16001129 0.00913239
 N   0.65703583 0.20915985 0.00913239
 C   0.67650604 0.14953613 0.03751373
 C   0.64656067 0.17948151 0.03751373
 C   0.71607208 0.21904755 0.46038055
 H   0.61869812 0.18172455 0.05564117
 H   0.67874908 0.12167358 0.05564117
 H   0.73843384 0.24140930 0.47546387
 H   0.73388672 0.19641113 0.44047546
 H   0.69343567 0.23686218 0.44047546
 C   0.93979645 0.44277191 0.27920532
 N   0.95619965 0.41002655 0.25914764
 N   0.90702057 0.45917511 0.25914764
 C   0.93238831 0.40541840 0.22437286
 C   0.90244293 0.43536377 0.22437286
 C   0.95597839 0.45895386 0.31883240
 H   0.87832642 0.44135284 0.20216370
 H   0.93837738 0.38130188 0.20216370
 H   0.93988800 0.44286346 0.34546661
 H   0.99044800 0.45296478 0.32070923
 H   0.94998932 0.49342346 0.32070923
 C   0.77458954 0.07617950 0.07413483
 N   0.75821686 0.11236572 0.06114197
 N   0.75821686 0.06318665 0.11032104
 C   0.72980499 0.12284088 0.09084320
 C   0.72980499 0.09288788 0.12079620
 C   0.80696869 0.05329132 0.05124664
 H   0.71167755 0.09064484 0.14865112
 H   0.71167755 0.15070343 0.08860016
 H   0.79185486 0.03096008 0.02891541
 H   0.82687378 0.07593536 0.03346252
 H   0.82687378 0.03550720 0.07388306
 C   0.00221252 0.32195282 0.31990814
 N   0.50820160 0.36235046 0.31115723
 N   0.50820160 0.31320190 0.36030579
 C   0.51858521 0.38016510 0.34819794
 C   0.51858521 0.35024261 0.37812042
 C   0.99035645 0.29067993 0.28863525
 H   0.52522278 0.35266876 0.41068268
 H   0.52522278 0.41272736 0.35062408
 H   0.95545959 0.28874969 0.28670502
 H   0.00328827 0.29989624 0.25743103
 H   0.00328827 0.25947571 0.29785156
 C   0.57320404 0.07617950 0.27552032
 N   0.56021118 0.11236572 0.25914764
 N   0.60939026 0.06318665 0.25914764
 C   0.58991241 0.12284088 0.23073578
 C   0.61986542 0.09288788 0.23073578
 C   0.55031586 0.05329132 0.30789948
 H   0.64772797 0.09064484 0.21260834
 H   0.58766937 0.15070343 0.21260834
 H   0.56100464 0.06398010 0.33947754
 H   0.51600647 0.05943298 0.30445862
 H   0.55645752 0.01901245 0.30445862
 C   0.82321930 0.32619476 0.49275970
 N   0.81022644 0.36235046 0.00913239
 N   0.85937500 0.31320190 0.00913239
 C   0.83989716 0.37282562 0.03751373
 C   0.86985016 0.34287262 0.03751373
 C   0.80033112 0.30330658 0.46038055
 H   0.89771271 0.34062958 0.05564117
 H   0.83765411 0.40068817 0.05564117
 H   0.77796936 0.28097534 0.47546387
 H   0.78251648 0.32595062 0.44047546
 H   0.82297516 0.28552246 0.44047546
 C   0.74181366 0.07617950 0.44412994
 N   0.75821686 0.06318665 0.40797424
 N   0.75821686 0.11236572 0.45713043
 C   0.78659821 0.09288788 0.39749908
 C   0.78659821 0.12284088 0.42745209
 C   0.70946503 0.05329132 0.46701813
 H   0.80472565 0.15070343 0.42966461
 H   0.80472565 0.09064484 0.36964417
 H   0.67785645 0.06398010 0.45635986
 H   0.71287537 0.01901245 0.46087646
 H   0.71287537 0.05943298 0.50132751
 C   0.98814392 0.32960510 0.19073486
 N   0.50820160 0.31320190 0.15795898
 N   0.50820160 0.36235046 0.20711517
 C   0.54297638 0.33700562 0.15338898
 C   0.54297638 0.36695862 0.18330383
 C   0.94848633 0.31341553 0.20692444
 H   0.56515503 0.39106750 0.18929291
 H   0.56515503 0.33101654 0.12927246
 H   0.92188263 0.32948303 0.19083405
 H   0.94664001 0.27894592 0.20093536
 H   0.94664001 0.31937408 0.24136353
Zn   0.13319397 0.76119232 0.50913239
Zn   0.38320923 0.51117706 0.75914764
Zn   0.13319397 0.51117706 0.75914764
Zn   0.38320923 0.76119232 0.50913239
Zn   0.00820160 0.63616943 0.75914764
Zn   0.25821686 0.88618469 0.50913239
Zn   0.25821686 0.51117706 0.63412476
Zn   0.00820160 0.76119232 0.88414001
Zn   0.25821686 0.63616943 0.50913239
Zn   0.00820160 0.88618469 0.75914764
Zn   0.00820160 0.76119232 0.63412476
Zn   0.25821686 0.51117706 0.88414001
 C   0.32321930 0.99480438 0.69411469
 N   0.31022644 0.51117706 0.65795898
 N   0.35937500 0.51117706 0.70711517
 C   0.33989716 0.53955841 0.64748383
 C   0.36985016 0.53955841 0.67743683
 C   0.30033112 0.96242523 0.71700287
 H   0.39771271 0.55768585 0.67967987
 H   0.33765411 0.55768585 0.61962891
 H   0.27799988 0.97750854 0.73936462
 H   0.28254700 0.94248962 0.69436646
 H   0.32297516 0.94248962 0.73481750
 C   0.07661438 0.74110413 0.94071960
 N   0.06021118 0.76119232 0.90794373
 N   0.10939026 0.76119232 0.95713043
 C   0.08401489 0.79596710 0.90337372
 C   0.11396790 0.79596710 0.93331909
 C   0.06042480 0.70147705 0.95690918
 H   0.13807678 0.81814575 0.93930817
 H   0.07802582 0.81814575 0.87925720
 H   0.03609467 0.70786285 0.98126984
 H   0.04620361 0.68310547 0.93070984
 H   0.08662415 0.68310547 0.97116852
 C   0.19318390 0.52754974 0.69411469
 N   0.20618439 0.51117706 0.65795898
 N   0.15703583 0.51117706 0.70711517
 C   0.17650604 0.98279572 0.64748383
 C   0.14656067 0.98279572 0.67743683
 C   0.21607208 0.55992889 0.71700287
 H   0.11869812 0.96466827 0.67967987
 H   0.17874908 0.96466827 0.61962891
 H   0.23843384 0.54484558 0.73936462
 H   0.23388672 0.57986450 0.69436646
 H   0.19343567 0.57986450 0.73481750
 C   0.43979645 0.74110413 0.94071960
 N   0.45619965 0.76119232 0.90794373
 N   0.40705109 0.76119232 0.95713043
 C   0.43238831 0.79596710 0.90337372
 C   0.40244293 0.79596710 0.93331909
 C   0.45597839 0.70147705 0.95690918
 H   0.37832642 0.81814575 0.93930817
 H   0.43837738 0.81814575 0.87925720
 H   0.43988800 0.67484283 0.94081879
 H   0.49044800 0.69963074 0.95092010
 H   0.44998932 0.69963074 0.99137878
 C   0.06896210 0.75517273 0.56989288
 N   0.06021118 0.76119232 0.61032104
 N   0.10939026 0.76119232 0.56114197
 C   0.09725189 0.77157593 0.62813568
 C   0.12720490 0.77157593 0.59818268
 C   0.03771973 0.74334717 0.53865051
 H   0.15976715 0.77821350 0.60063934
 H   0.09970856 0.77821350 0.66066742
 H   0.03578949 0.70841980 0.53672028
 H   0.50651550 0.75624847 0.54786682
 H   0.04693604 0.75624847 0.00744629
 C   0.32061005 0.52275848 0.82153320
 N   0.31022644 0.51117706 0.86030579
 N   0.35937500 0.51117706 0.81115723
 C   0.34441376 0.99111938 0.87528992
 C   0.37436676 0.99111938 0.84534454
 C   0.29259491 0.54564667 0.79351807
 H   0.40511322 0.97827911 0.84598541
 H   0.34505463 0.97827911 0.90604401
 H   0.27375793 0.52288055 0.77468872
 H   0.27105713 0.56579590 0.81241608
 H   0.31148529 0.56579590 0.77198792
 C   0.44319916 0.77756500 0.57413483
 N   0.45619965 0.76119232 0.61032104
 N   0.40705109 0.76119232 0.56114197
 C   0.42652130 0.73278046 0.62079620
 C   0.39657593 0.73278046 0.59084320
 C   0.46608734 0.80994415 0.55124664
 H   0.36871338 0.71465302 0.58860016
 H   0.42873383 0.71465302 0.64865112
 H   0.45542908 0.84152222 0.56193542
 H   0.50039673 0.80650330 0.55738831
 H   0.45994568 0.80650330 0.51693726
 C   0.19318390 0.99480438 0.82415009
 N   0.20618439 0.51117706 0.86030579
 N   0.15703583 0.51117706 0.81115723
 C   0.17650604 0.53955841 0.87078094
 C   0.14656067 0.53955841 0.84082794
 C   0.21607208 0.96242523 0.80126190
 H   0.11869812 0.55768585 0.83858490
 H   0.17874908 0.55768585 0.89863586
 H   0.23843384 0.97750854 0.77890015
 H   0.23388672 0.94248962 0.82389832
 H   0.19343567 0.94248962 0.78344727
 C   0.19580078 0.82358551 0.52071381
 N   0.20618439 0.86235046 0.50913239
 N   0.15703583 0.81320190 0.50913239
 C   0.17198944 0.87734222 0.98907471
 C   0.14204407 0.84738922 0.98907471
 C   0.22384644 0.79557037 0.54360199
 H   0.11128998 0.84803009 0.97623444
 H   0.17134857 0.90808868 0.97623444
 H   0.24264526 0.77673340 0.52083588
 H   0.24534607 0.81446075 0.56375122
 H   0.20492554 0.77403259 0.56375122
 C   0.44581604 0.57360077 0.74753571
 N   0.45619965 0.61236572 0.75914764
 N   0.40705109 0.56318665 0.75914764
 C   0.42200470 0.62732697 0.77920532
 C   0.39205933 0.59740448 0.77920532
 C   0.47383118 0.54555511 0.72465515
 H   0.36130524 0.59801483 0.79201508
 H   0.42136383 0.65807343 0.79201508
 H   0.46931458 0.55006409 0.69024658
 H   0.50703430 0.55280304 0.73313141
 H   0.46661377 0.51234436 0.73313141
 C   0.02825928 0.69278717 0.82752991
 N   0.00820160 0.70915985 0.86030579
 N   0.00820160 0.66001129 0.81115723
 C   0.47342682 0.68534851 0.86491394
 C   0.47342682 0.65540314 0.83496094
 C   0.06791687 0.70896912 0.81137085
 H   0.45124817 0.63131714 0.82897186
 H   0.45124817 0.69133759 0.88902283
 H   0.06150055 0.73329926 0.78701019
 H   0.08628845 0.72319794 0.83753967
 H   0.08628845 0.68276978 0.79711914
 C   0.24181366 0.94617462 0.57413483
 N   0.25821686 0.95917511 0.61032104
 N   0.25821686 0.90998840 0.56114197
 C   0.28659821 0.92946625 0.62079620
 C   0.28659821 0.89955139 0.59084320
 C   0.20946503 0.96906281 0.55124664
 H   0.30472565 0.87165833 0.58860016
 H   0.30472565 0.93170929 0.64865112
 H   0.17785645 0.95837402 0.56193542
 H   0.21287537 0.00337219 0.55738831
 H   0.21287537 0.96292114 0.51693726
 C   0.07320404 0.94617462 0.74274445
 N   0.06021118 0.90998840 0.75914764
 N   0.10939026 0.95917511 0.75914764
 C   0.08991241 0.89955139 0.78752899
 C   0.11986542 0.92946625 0.78752899
 C   0.05031586 0.96906281 0.71039581
 H   0.14772797 0.93170929 0.80565643
 H   0.08766937 0.87165833 0.80565643
 H   0.06100464 0.95837402 0.67878723
 H   0.01603699 0.96292114 0.71380615
 H   0.05645752 0.00337219 0.71380615
 C   0.32321930 0.69615936 0.52550507
 N   0.31022644 0.66001129 0.50913239
 N   0.35937500 0.70915985 0.50913239
 C   0.33989716 0.64953613 0.98075104
 C   0.36985016 0.67948151 0.98075104
 C   0.30033112 0.71904755 0.55788422
 H   0.39771271 0.68172455 0.96262360
 H   0.33765411 0.62167358 0.96262360
 H   0.27799988 0.74140930 0.54280090
 H   0.28254700 0.69641113 0.57781982
 H   0.32297516 0.73686218 0.57781982
 C   0.01419067 0.70040131 0.69835663
 N   0.00820160 0.70915985 0.65795898
 N   0.00820160 0.66001129 0.70711517
 C   0.49781799 0.67214203 0.64014435
 C   0.49781799 0.64218903 0.67009735
 C   0.02604675 0.73167419 0.72962952
 H   0.49118805 0.60962677 0.66764069
 H   0.49118805 0.66968536 0.60758209
 H   0.06094360 0.73361206 0.73155975
 H   0.01311493 0.76288605 0.72041321
 H   0.01311493 0.72245789 0.76084137
 C   0.27458954 0.94617462 0.94412994
 N   0.25821686 0.95917511 0.90794373
 N   0.25821686 0.90998840 0.95713043
 C   0.22980499 0.92946625 0.89749908
 C   0.22980499 0.89955139 0.92742157
 C   0.30696869 0.96906281 0.96701813
 H   0.21167755 0.87165833 0.92966461
 H   0.21167755 0.93170929 0.86961365
 H   0.33854675 0.95837402 0.95632935
 H   0.30352783 0.00337219 0.96087646
 H   0.30352783 0.96292114 0.00132751
 C   0.19318390 0.69615936 0.99275970
 N   0.20618439 0.66001129 0.50913239
 N   0.15703583 0.70915985 0.50913239
 C   0.17650604 0.64953613 0.53751373
 C   0.14656067 0.67948151 0.53751373
 C   0.21607208 0.71904755 0.96038055
 H   0.11869812 0.68172455 0.55564117
 H   0.17874908 0.62167358 0.55564117
 H   0.23843384 0.74140930 0.97546387
 H   0.23388672 0.69641113 0.94044495
 H   0.19343567 0.73686218 0.94044495
 C   0.43979645 0.94277191 0.77920532
 N   0.45619965 0.90998840 0.75914764
 N   0.40705109 0.95917511 0.75914764
 C   0.43238831 0.90541840 0.72434235
 C   0.40244293 0.93536377 0.72434235
 C   0.45597839 0.95895386 0.81883240
 H   0.37832642 0.94135284 0.70216370
 H   0.43837738 0.88130188 0.70216370
 H   0.43988800 0.94286346 0.84546661
 H   0.49044800 0.95296478 0.82070923
 H   0.44998932 0.99342346 0.82070923
 C   0.27458954 0.57617950 0.57413483
 N   0.25821686 0.61236572 0.56114197
 N   0.25821686 0.56318665 0.61032104
 C   0.22980499 0.62284088 0.59084320
 C   0.22980499 0.59288788 0.62079620
 C   0.30696869 0.55329132 0.55124664
 H   0.21167755 0.59064484 0.64865112
 H   0.21167755 0.65070343 0.58860016
 H   0.29185486 0.53096008 0.52891541
 H   0.32687378 0.57593536 0.53346252
 H   0.32687378 0.53550720 0.57388306
 C   0.50221252 0.82195282 0.81990814
 N   0.00820160 0.86235046 0.81115723
 N   0.00820160 0.81320190 0.86030579
 C   0.01861572 0.88016510 0.84819794
 C   0.01861572 0.85024261 0.87812042
 C   0.49035645 0.79067993 0.78863525
 H   0.02522278 0.85266876 0.91068268
 H   0.02522278 0.91272736 0.85062408
 H   0.45545959 0.78874969 0.78670502
 H   0.50328827 0.79989624 0.75743103
 H   0.50328827 0.75947571 0.79785156
 C   0.07320404 0.57617950 0.77552032
 N   0.06021118 0.61236572 0.75914764
 N   0.10939026 0.56318665 0.75914764
 C   0.08991241 0.62284088 0.73073578
 C   0.11986542 0.59288788 0.73073578
 C   0.05031586 0.55329132 0.80789948
 H   0.14772797 0.59064484 0.71260834
 H   0.08766937 0.65070343 0.71260834
 H   0.06100464 0.56398010 0.83947754
 H   0.01603699 0.55943298 0.80445862
 H   0.05645752 0.51898193 0.80445862
 C   0.32321930 0.82619476 0.99275970
 N   0.31022644 0.86235046 0.50913239
 N   0.35937500 0.81320190 0.50913239
 C   0.33989716 0.87282562 0.53751373
 C   0.36985016 0.84287262 0.53751373
 C   0.30033112 0.80330658 0.96038055
 H   0.39771271 0.84062958 0.55564117
 H   0.33765411 0.90068817 0.55564117
 H   0.27799988 0.78094482 0.97546387
 H   0.28254700 0.82595062 0.94044495
 H   0.32297516 0.78549194 0.94044495
 C   0.24181366 0.57617950 0.94412994
 N   0.25821686 0.56318665 0.90794373
 N   0.25821686 0.61236572 0.95713043
 C   0.28659821 0.59288788 0.89749908
 C   0.28659821 0.62284088 0.92742157
 C   0.20946503 0.55329132 0.96701813
 H   0.30472565 0.65070343 0.92966461
 H   0.30472565 0.59064484 0.86961365
 H   0.17785645 0.56398010 0.95632935
 H   0.21287537 0.51898193 0.96087646
 H   0.21287537 0.55943298 0.00132751
 C   0.48814392 0.82957458 0.69074249
 N   0.00820160 0.81320190 0.65795898
 N   0.00820160 0.86235046 0.70711517
 C   0.04297638 0.83700562 0.65335083
 C   0.04297638 0.86695862 0.68330383
 C   0.44851685 0.81341553 0.70692444
 H   0.06518555 0.89106750 0.68929291
 H   0.06518555 0.83101654 0.62927246
 H   0.42188263 0.82948303 0.69083405
 H   0.44664001 0.77894592 0.70093536
 H   0.44664001 0.81937408 0.74136353
Zn   0.13319397 0.76119232 0.00913239
Zn   0.38320923 0.51117706 0.25914764
Zn   0.13319397 0.51117706 0.25914764
Zn   0.38320923 0.76119232 0.00913239
Zn   0.00820160 0.63616943 0.25914764
Zn   0.25821686 0.88618469 0.00913239
Zn   0.25821686 0.51117706 0.13412476
Zn   0.00820160 0.76119232 0.38414001
Zn   0.25821686 0.63616943 0.00913239
Zn   0.00820160 0.88618469 0.25914764
Zn   0.00820160 0.76119232 0.13412476
Zn   0.25821686 0.51117706 0.38414001
 C   0.32321930 0.99480438 0.19411469
 N   0.31022644 0.51117706 0.15795898
 N   0.35937500 0.51117706 0.20711517
 C   0.33989716 0.53955841 0.14748383
 C   0.36985016 0.53955841 0.17743683
 C   0.30033112 0.96242523 0.21700287
 H   0.39771271 0.55768585 0.17967987
 H   0.33765411 0.55768585 0.11962891
 H   0.27799988 0.97750854 0.23936462
 H   0.28254700 0.94248962 0.19436646
 H   0.32297516 0.94248962 0.23481750
 C   0.07661438 0.74110413 0.44071960
 N   0.06021118 0.76119232 0.40797424
 N   0.10939026 0.76119232 0.45713043
 C   0.08401489 0.79596710 0.40337372
 C   0.11396790 0.79596710 0.43331909
 C   0.06042480 0.70147705 0.45690918
 H   0.13807678 0.81814575 0.43930817
 H   0.07802582 0.81814575 0.37925720
 H   0.03609467 0.70786285 0.48126984
 H   0.04620361 0.68310547 0.43070984
 H   0.08662415 0.68310547 0.47116852
 C   0.19318390 0.52754974 0.19411469
 N   0.20618439 0.51117706 0.15795898
 N   0.15703583 0.51117706 0.20711517
 C   0.17650604 0.98279572 0.14748383
 C   0.14656067 0.98279572 0.17743683
 C   0.21607208 0.55992889 0.21700287
 H   0.11869812 0.96466827 0.17967987
 H   0.17874908 0.96466827 0.11962891
 H   0.23843384 0.54484558 0.23936462
 H   0.23388672 0.57986450 0.19436646
 H   0.19343567 0.57986450 0.23481750
 C   0.43979645 0.74110413 0.44071960
 N   0.45619965 0.76119232 0.40797424
 N   0.40705109 0.76119232 0.45713043
 C   0.43238831 0.79596710 0.40337372
 C   0.40244293 0.79596710 0.43331909
 C   0.45597839 0.70147705 0.45690918
 H   0.37832642 0.81814575 0.43930817
 H   0.43837738 0.81814575 0.37925720
 H   0.43988800 0.67484283 0.44081879
 H   0.49044800 0.69963074 0.45092010
 H   0.44998932 0.69963074 0.49137878
 C   0.06896210 0.75517273 0.06989288
 N   0.06021118 0.76119232 0.11032104
 N   0.10939026 0.76119232 0.06114197
 C   0.09725189 0.77157593 0.12813568
 C   0.12720490 0.77157593 0.09818268
 C   0.03771973 0.74334717 0.03865051
 H   0.15976715 0.77821350 0.10063934
 H   0.09970856 0.77821350 0.16069794
 H   0.03578949 0.70841980 0.03672028
 H   0.50651550 0.75624847 0.04786682
 H   0.04693604 0.75624847 0.50744629
 C   0.32061005 0.52275848 0.32153320
 N   0.31022644 0.51117706 0.36030579
 N   0.35937500 0.51117706 0.31115723
 C   0.34441376 0.99111938 0.37528992
 C   0.37436676 0.99111938 0.34534454
 C   0.29259491 0.54564667 0.29351807
 H   0.40511322 0.97827911 0.34598541
 H   0.34505463 0.97827911 0.40604401
 H   0.27375793 0.52288055 0.27468872
 H   0.27105713 0.56579590 0.31241608
 H   0.31148529 0.56579590 0.27198792
 C   0.44319916 0.77756500 0.07413483
 N   0.45619965 0.76119232 0.11032104
 N   0.40705109 0.76119232 0.06114197
 C   0.42652130 0.73278046 0.12079620
 C   0.39657593 0.73278046 0.09084320
 C   0.46608734 0.80994415 0.05124664
 H   0.36871338 0.71465302 0.08860016
 H   0.42873383 0.71465302 0.14865112
 H   0.45542908 0.84152222 0.06193542
 H   0.50039673 0.80650330 0.05738831
 H   0.45994568 0.80650330 0.01696777
 C   0.19318390 0.99480438 0.32415009
 N   0.20618439 0.51117706 0.36030579
 N   0.15703583 0.51117706 0.31115723
 C   0.17650604 0.53955841 0.37078094
 C   0.14656067 0.53955841 0.34082794
 C   0.21607208 0.96242523 0.30126190
 H   0.11869812 0.55768585 0.33858490
 H   0.17874908 0.55768585 0.39863586
 H   0.23843384 0.97750854 0.27893066
 H   0.23388672 0.94248962 0.32389832
 H   0.19343567 0.94248962 0.28347778
 C   0.19580078 0.82358551 0.02071381
 N   0.20618439 0.86235046 0.00913239
 N   0.15703583 0.81320190 0.00913239
 C   0.17198944 0.87734222 0.48907471
 C   0.14204407 0.84738922 0.48907471
 C   0.22384644 0.79557037 0.04360199
 H   0.11128998 0.84803009 0.47623444
 H   0.17134857 0.90808868 0.47623444
 H   0.24264526 0.77673340 0.02083588
 H   0.24534607 0.81446075 0.06375122
 H   0.20492554 0.77403259 0.06375122
 C   0.44581604 0.57360077 0.24756622
 N   0.45619965 0.61236572 0.25914764
 N   0.40705109 0.56318665 0.25914764
 C   0.42200470 0.62732697 0.27920532
 C   0.39205933 0.59740448 0.27920532
 C   0.47383118 0.54555511 0.22468567
 H   0.36130524 0.59801483 0.29201508
 H   0.42136383 0.65807343 0.29201508
 H   0.46931458 0.55006409 0.19024658
 H   0.50703430 0.55280304 0.23313141
 H   0.46661377 0.51234436 0.23313141
 C   0.02825928 0.69278717 0.32756042
 N   0.00820160 0.70915985 0.36030579
 N   0.00820160 0.66001129 0.31115723
 C   0.47342682 0.68534851 0.36491394
 C   0.47342682 0.65540314 0.33496094
 C   0.06791687 0.70896912 0.31137085
 H   0.45124817 0.63131714 0.32897186
 H   0.45124817 0.69133759 0.38902283
 H   0.06150055 0.73329926 0.28701019
 H   0.08628845 0.72319794 0.33757019
 H   0.08628845 0.68276978 0.29711914
 C   0.24181366 0.94617462 0.07413483
 N   0.25821686 0.95917511 0.11032104
 N   0.25821686 0.90998840 0.06114197
 C   0.28659821 0.92946625 0.12079620
 C   0.28659821 0.89955139 0.09084320
 C   0.20946503 0.96906281 0.05124664
 H   0.30472565 0.87165833 0.08860016
 H   0.30472565 0.93170929 0.14865112
 H   0.17785645 0.95837402 0.06193542
 H   0.21287537 0.00337219 0.05738831
 H   0.21287537 0.96292114 0.01696777
 C   0.07320404 0.94617462 0.24274445
 N   0.06021118 0.90998840 0.25914764
 N   0.10939026 0.95917511 0.25914764
 C   0.08991241 0.89955139 0.28752899
 C   0.11986542 0.92946625 0.28752899
 C   0.05031586 0.96906281 0.21039581
 H   0.14772797 0.93170929 0.30565643
 H   0.08766937 0.87165833 0.30565643
 H   0.06100464 0.95837402 0.17878723
 H   0.01603699 0.96292114 0.21380615
 H   0.05645752 0.00337219 0.21380615
 C   0.32321930 0.69615936 0.02553558
 N   0.31022644 0.66001129 0.00913239
 N   0.35937500 0.70915985 0.00913239
 C   0.33989716 0.64953613 0.48075104
 C   0.36985016 0.67948151 0.48075104
 C   0.30033112 0.71904755 0.05788422
 H   0.39771271 0.68172455 0.46262360
 H   0.33765411 0.62167358 0.46262360
 H   0.27799988 0.74140930 0.04280090
 H   0.28254700 0.69641113 0.07781982
 H   0.32297516 0.73686218 0.07781982
 C   0.01419067 0.70040131 0.19835663
 N   0.00820160 0.70915985 0.15795898
 N   0.00820160 0.66001129 0.20711517
 C   0.49781799 0.67214203 0.14014435
 C   0.49781799 0.64218903 0.17009735
 C   0.02604675 0.73167419 0.22962952
 H   0.49118805 0.60962677 0.16764069
 H   0.49118805 0.66968536 0.10758209
 H   0.06094360 0.73361206 0.23155975
 H   0.01311493 0.76288605 0.22041321
 H   0.01311493 0.72245789 0.26084137
 C   0.27458954 0.94617462 0.44412994
 N   0.25821686 0.95917511 0.40797424
 N   0.25821686 0.90998840 0.45713043
 C   0.22980499 0.92946625 0.39749908
 C   0.22980499 0.89955139 0.42745209
 C   0.30696869 0.96906281 0.46701813
 H   0.21167755 0.87165833 0.42966461
 H   0.21167755 0.93170929 0.36964417
 H   0.33854675 0.95837402 0.45635986
 H   0.30352783 0.00337219 0.46087646
 H   0.30352783 0.96292114 0.50132751
 C   0.19318390 0.69615936 0.49275970
 N   0.20618439 0.66001129 0.00913239
 N   0.15703583 0.70915985 0.00913239
 C   0.17650604 0.64953613 0.03751373
 C   0.14656067 0.67948151 0.03751373
 C   0.21607208 0.71904755 0.46038055
 H   0.11869812 0.68172455 0.05564117
 H   0.17874908 0.62167358 0.05564117
 H   0.23843384 0.74140930 0.47546387
 H   0.23388672 0.69641113 0.44047546
 H   0.19343567 0.73686218 0.44047546
 C   0.43979645 0.94277191 0.27920532
 N   0.45619965 0.90998840 0.25914764
 N   0.40705109 0.95917511 0.25914764
 C   0.43238831 0.90541840 0.22437286
 C   0.40244293 0.93536377 0.22437286
 C   0.45597839 0.95895386 0.31883240
 H   0.37832642 0.94135284 0.20216370
 H   0.43837738 0.88130188 0.20216370
 H   0.43988800 0.94286346 0.34546661
 H   0.49044800 0.95296478 0.32070923
 H   0.44998932 0.99342346 0.32070923
 C   0.27458954 0.57617950 0.07413483
 N   0.25821686 0.61236572 0.06114197
 N   0.25821686 0.56318665 0.11032104
 C   0.22980499 0.62284088 0.09084320
 C   0.22980499 0.59288788 0.12079620
 C   0.30696869 0.55329132 0.05124664
 H   0.21167755 0.59064484 0.14865112
 H   0.21167755 0.65070343 0.08860016
 H   0.29185486 0.53096008 0.02891541
 H   0.32687378 0.57593536 0.03346252
 H   0.32687378 0.53550720 0.07388306
 C   0.50221252 0.82195282 0.31990814
 N   0.00820160 0.86235046 0.31115723
 N   0.00820160 0.81320190 0.36030579
 C   0.01861572 0.88016510 0.34819794
 C   0.01861572 0.85024261 0.37812042
 C   0.49035645 0.79067993 0.28863525
 H   0.02522278 0.85266876 0.41068268
 H   0.02522278 0.91272736 0.35062408
 H   0.45545959 0.78874969 0.28670502
 H   0.50328827 0.79989624 0.25743103
 H   0.50328827 0.75947571 0.29785156
 C   0.07320404 0.57617950 0.27552032
 N   0.06021118 0.61236572 0.25914764
 N   0.10939026 0.56318665 0.25914764
 C   0.08991241 0.62284088 0.23073578
 C   0.11986542 0.59288788 0.23073578
 C   0.05031586 0.55329132 0.30789948
 H   0.14772797 0.59064484 0.21260834
 H   0.08766937 0.65070343 0.21260834
 H   0.06100464 0.56398010 0.33947754
 H   0.01603699 0.55943298 0.30445862
 H   0.05645752 0.51898193 0.30445862
 C   0.32321930 0.82619476 0.49275970
 N   0.31022644 0.86235046 0.00913239
 N   0.35937500 0.81320190 0.00913239
 C   0.33989716 0.87282562 0.03751373
 C   0.36985016 0.84287262 0.03751373
 C   0.30033112 0.80330658 0.46038055
 H   0.39771271 0.84062958 0.05564117
 H   0.33765411 0.90068817 0.05564117
 H   0.27799988 0.78094482 0.47546387
 H   0.28254700 0.82595062 0.44047546
 H   0.32297516 0.78549194 0.44047546
 C   0.24181366 0.57617950 0.44412994
 N   0.25821686 0.56318665 0.40797424
 N   0.25821686 0.61236572 0.45713043
 C   0.28659821 0.59288788 0.39749908
 C   0.28659821 0.62284088 0.42745209
 C   0.20946503 0.55329132 0.46701813
 H   0.30472565 0.65070343 0.42966461
 H   0.30472565 0.59064484 0.36964417
 H   0.17785645 0.56398010 0.45635986
 H   0.21287537 0.51898193 0.46087646
 H   0.21287537 0.55943298 0.50132751
 C   0.48814392 0.82957458 0.19073486
 N   0.00820160 0.81320190 0.15795898
 N   0.00820160 0.86235046 0.20711517
 C   0.04297638 0.83700562 0.15338898
 C   0.04297638 0.86695862 0.18330383
 C   0.44851685 0.81341553 0.20692444
 H   0.06518555 0.89106750 0.18929291
 H   0.06518555 0.83101654 0.12927246
 H   0.42188263 0.82948303 0.19083405
 H   0.44664001 0.77894592 0.20093536
 H   0.44664001 0.81937408 0.24136353
Zn   0.13319397 0.26119232 0.50913239
Zn   0.38320923 0.01117706 0.75914764
Zn   0.13319397 0.01117706 0.75914764
Zn   0.38320923 0.26119232 0.50913239
Zn   0.00820160 0.13616943 0.75914764
Zn   0.25821686 0.38618469 0.50913239
Zn   0.25821686 0.01117706 0.63412476
Zn   0.00820160 0.26119232 0.88414001
Zn   0.25821686 0.13616943 0.50913239
Zn   0.00820160 0.38618469 0.75914764
Zn   0.00820160 0.26119232 0.63412476
Zn   0.25821686 0.01117706 0.88414001
 C   0.32321930 0.49480438 0.69411469
 N   0.31022644 0.01117706 0.65795898
 N   0.35937500 0.01117706 0.70711517
 C   0.33989716 0.03955841 0.64748383
 C   0.36985016 0.03955841 0.67743683
 C   0.30033112 0.46242523 0.71700287
 H   0.39771271 0.05768585 0.67967987
 H   0.33765411 0.05768585 0.61962891
 H   0.27799988 0.47750854 0.73936462
 H   0.28254700 0.44252014 0.69436646
 H   0.32297516 0.44252014 0.73481750
 C   0.07661438 0.24110413 0.94071960
 N   0.06021118 0.26119232 0.90794373
 N   0.10939026 0.26119232 0.95713043
 C   0.08401489 0.29596710 0.90337372
 C   0.11396790 0.29596710 0.93331909
 C   0.06042480 0.20147705 0.95690918
 H   0.13807678 0.31814575 0.93930817
 H   0.07802582 0.31814575 0.87925720
 H   0.03609467 0.20786285 0.98126984
 H   0.04620361 0.18310547 0.93070984
 H   0.08662415 0.18310547 0.97116852
 C   0.19318390 0.02758026 0.69411469
 N   0.20618439 0.01117706 0.65795898
 N   0.15703583 0.01117706 0.70711517
 C   0.17650604 0.48279572 0.64748383
 C   0.14656067 0.48279572 0.67743683
 C   0.21607208 0.05992889 0.71700287
 H   0.11869812 0.46466827 0.67967987
 H   0.17874908 0.46466827 0.61962891
 H   0.23843384 0.04484558 0.73936462
 H   0.23388672 0.07986450 0.69436646
 H   0.19343567 0.07986450 0.73481750
 C   0.43979645 0.24110413 0.94071960
 N   0.45619965 0.26119232 0.90794373
 N   0.40705109 0.26119232 0.95713043
 C   0.43238831 0.29596710 0.90337372
 C   0.40244293 0.29596710 0.93331909
 C   0.45597839 0.20147705 0.95690918
 H   0.37832642 0.31814575 0.93930817
 H   0.43837738 0.31814575 0.87925720
 H   0.43988800 0.17487335 0.94081879
 H   0.49044800 0.19963074 0.95092010
 H   0.44998932 0.19963074 0.99137878
 C   0.06896210 0.25517273 0.56989288
 N   0.06021118 0.26119232 0.61032104
 N   0.10939026 0.26119232 0.56114197
 C   0.09725189 0.27157593 0.62813568
 C   0.12720490 0.27157593 0.59818268
 C   0.03771973 0.24334717 0.53865051
 H   0.15976715 0.27821350 0.60063934
 H   0.09970856 0.27821350 0.66066742
 H   0.03578949 0.20841980 0.53672028
 H   0.50651550 0.25624847 0.54786682
 H   0.04693604 0.25624847 0.00744629
 C   0.32061005 0.02275848 0.82153320
 N   0.31022644 0.01117706 0.86030579
 N   0.35937500 0.01117706 0.81115723
 C   0.34441376 0.49111938 0.87528992
 C   0.37436676 0.49111938 0.84534454
 C   0.29259491 0.04564667 0.79351807
 H   0.40511322 0.47827911 0.84598541
 H   0.34505463 0.47827911 0.90604401
 H   0.27375793 0.02288055 0.77468872
 H   0.27105713 0.06579590 0.81241608
 H   0.31148529 0.06579590 0.77198792
 C   0.44319916 0.27756500 0.57413483
 N   0.45619965 0.26119232 0.61032104
 N   0.40705109 0.26119232 0.56114197
 C   0.42652130 0.23278046 0.62079620
 C   0.39657593 0.23278046 0.59084320
 C   0.46608734 0.30994415 0.55124664
 H   0.36871338 0.21465302 0.58860016
 H   0.42873383 0.21465302 0.64865112
 H   0.45542908 0.34152222 0.56193542
 H   0.50039673 0.30650330 0.55738831
 H   0.45994568 0.30650330 0.51693726
 C   0.19318390 0.49480438 0.82415009
 N   0.20618439 0.01117706 0.86030579
 N   0.15703583 0.01117706 0.81115723
 C   0.17650604 0.03955841 0.87078094
 C   0.14656067 0.03955841 0.84082794
 C   0.21607208 0.46242523 0.80126190
 H   0.11869812 0.05768585 0.83858490
 H   0.17874908 0.05768585 0.89863586
 H   0.23843384 0.47750854 0.77890015
 H   0.23388672 0.44252014 0.82389832
 H   0.19343567 0.44252014 0.78344727
 C   0.19580078 0.32358551 0.52071381
 N   0.20618439 0.36235046 0.50913239
 N   0.15703583 0.31320190 0.50913239
 C   0.17198944 0.37734222 0.98907471
 C   0.14204407 0.34738922 0.98907471
 C   0.22384644 0.29557037 0.54360199
 H   0.11128998 0.34803009 0.97623444
 H   0.17134857 0.40808868 0.97623444
 H   0.24264526 0.27673340 0.52083588
 H   0.24534607 0.31446075 0.56375122
 H   0.20492554 0.27403259 0.56375122
 C   0.44581604 0.07360077 0.74753571
 N   0.45619965 0.11236572 0.75914764
 N   0.40705109 0.06318665 0.75914764
 C   0.42200470 0.12732697 0.77920532
 C   0.39205933 0.09740448 0.77920532
 C   0.47383118 0.04555511 0.72465515
 H   0.36130524 0.09804535 0.79201508
 H   0.42136383 0.15807343 0.79201508
 H   0.46931458 0.05006409 0.69024658
 H   0.50703430 0.05280304 0.73313141
 H   0.46661377 0.01234436 0.73313141
 C   0.02825928 0.19278717 0.82752991
 N   0.00820160 0.20915985 0.86030579
 N   0.00820160 0.16001129 0.81115723
 C   0.47342682 0.18534851 0.86491394
 C   0.47342682 0.15543365 0.83496094
 C   0.06791687 0.20896912 0.81137085
 H   0.45124817 0.13131714 0.82897186
 H   0.45124817 0.19133759 0.88902283
 H   0.06150055 0.23329926 0.78701019
 H   0.08628845 0.22319794 0.83753967
 H   0.08628845 0.18276978 0.79711914
 C   0.24181366 0.44617462 0.57413483
 N   0.25821686 0.45917511 0.61032104
 N   0.25821686 0.41002655 0.56114197
 C   0.28659821 0.42949677 0.62079620
 C   0.28659821 0.39955139 0.59084320
 C   0.20946503 0.46906281 0.55124664
 H   0.30472565 0.37168884 0.58860016
 H   0.30472565 0.43170929 0.64865112
 H   0.17785645 0.45840454 0.56193542
 H   0.21287537 0.50337219 0.55738831
 H   0.21287537 0.46292114 0.51693726
 C   0.07320404 0.44617462 0.74274445
 N   0.06021118 0.41002655 0.75914764
 N   0.10939026 0.45917511 0.75914764
 C   0.08991241 0.39955139 0.78752899
 C   0.11986542 0.42949677 0.78752899
 C   0.05031586 0.46906281 0.71039581
 H   0.14772797 0.43170929 0.80565643
 H   0.08766937 0.37168884 0.80565643
 H   0.06100464 0.45840454 0.67878723
 H   0.01603699 0.46292114 0.71380615
 H   0.05645752 0.50337219 0.71380615
 C   0.32321930 0.19615936 0.52550507
 N   0.31022644 0.16001129 0.50913239
 N   0.35937500 0.20915985 0.50913239
 C   0.33989716 0.14953613 0.98075104
 C   0.36985016 0.17948151 0.98075104
 C   0.30033112 0.21904755 0.55788422
 H   0.39771271 0.18172455 0.96262360
 H   0.33765411 0.12167358 0.96262360
 H   0.27799988 0.24140930 0.54280090
 H   0.28254700 0.19641113 0.57781982
 H   0.32297516 0.23686218 0.57781982
 C   0.01419067 0.20040131 0.69835663
 N   0.00820160 0.20915985 0.65795898
 N   0.00820160 0.16001129 0.70711517
 C   0.49781799 0.17214203 0.64014435
 C   0.49781799 0.14218903 0.67009735
 C   0.02604675 0.23167419 0.72962952
 H   0.49118805 0.10962677 0.66764069
 H   0.49118805 0.16968536 0.60758209
 H   0.06094360 0.23361206 0.73155975
 H   0.01311493 0.26288605 0.72041321
 H   0.01311493 0.22245789 0.76084137
 C   0.27458954 0.44617462 0.94412994
 N   0.25821686 0.45917511 0.90794373
 N   0.25821686 0.41002655 0.95713043
 C   0.22980499 0.42949677 0.89749908
 C   0.22980499 0.39955139 0.92742157
 C   0.30696869 0.46906281 0.96701813
 H   0.21167755 0.37168884 0.92966461
 H   0.21167755 0.43170929 0.86961365
 H   0.33854675 0.45840454 0.95632935
 H   0.30352783 0.50337219 0.96087646
 H   0.30352783 0.46292114 0.00132751
 C   0.19318390 0.19615936 0.99275970
 N   0.20618439 0.16001129 0.50913239
 N   0.15703583 0.20915985 0.50913239
 C   0.17650604 0.14953613 0.53751373
 C   0.14656067 0.17948151 0.53751373
 C   0.21607208 0.21904755 0.96038055
 H   0.11869812 0.18172455 0.55564117
 H   0.17874908 0.12167358 0.55564117
 H   0.23843384 0.24140930 0.97546387
 H   0.23388672 0.19641113 0.94044495
 H   0.19343567 0.23686218 0.94044495
 C   0.43979645 0.44277191 0.77920532
 N   0.45619965 0.41002655 0.75914764
 N   0.40705109 0.45917511 0.75914764
 C   0.43238831 0.40541840 0.72434235
 C   0.40244293 0.43536377 0.72434235
 C   0.45597839 0.45895386 0.81883240
 H   0.37832642 0.44135284 0.70216370
 H   0.43837738 0.38130188 0.70216370
 H   0.43988800 0.44286346 0.84546661
 H   0.49044800 0.45296478 0.82070923
 H   0.44998932 0.49342346 0.82070923
 C   0.27458954 0.07617950 0.57413483
 N   0.25821686 0.11236572 0.56114197
 N   0.25821686 0.06318665 0.61032104
 C   0.22980499 0.12284088 0.59084320
 C   0.22980499 0.09288788 0.62079620
 C   0.30696869 0.05329132 0.55124664
 H   0.21167755 0.09064484 0.64865112
 H   0.21167755 0.15070343 0.58860016
 H   0.29185486 0.03096008 0.52891541
 H   0.32687378 0.07593536 0.53346252
 H   0.32687378 0.03550720 0.57388306
 C   0.50221252 0.32195282 0.81990814
 N   0.00820160 0.36235046 0.81115723
 N   0.00820160 0.31320190 0.86030579
 C   0.01861572 0.38016510 0.84819794
 C   0.01861572 0.35024261 0.87812042
 C   0.49035645 0.29067993 0.78863525
 H   0.02522278 0.35266876 0.91068268
 H   0.02522278 0.41272736 0.85062408
 H   0.45545959 0.28874969 0.78670502
 H   0.50328827 0.29989624 0.75743103
 H   0.50328827 0.25947571 0.79785156
 C   0.07320404 0.07617950 0.77552032
 N   0.06021118 0.11236572 0.75914764
 N   0.10939026 0.06318665 0.75914764
 C   0.08991241 0.12284088 0.73073578
 C   0.11986542 0.09288788 0.73073578
 C   0.05031586 0.05329132 0.80789948
 H   0.14772797 0.09064484 0.71260834
 H   0.08766937 0.15070343 0.71260834
 H   0.06100464 0.06398010 0.83947754
 H   0.01603699 0.05943298 0.80445862
 H   0.05645752 0.01901245 0.80445862
 C   0.32321930 0.32619476 0.99275970
 N   0.31022644 0.36235046 0.50913239
 N   0.35937500 0.31320190 0.50913239
 C   0.33989716 0.37282562 0.53751373
 C   0.36985016 0.34287262 0.53751373
 C   0.30033112 0.30330658 0.96038055
 H   0.39771271 0.34062958 0.55564117
 H   0.33765411 0.40068817 0.55564117
 H   0.27799988 0.28097534 0.97546387
 H   0.28254700 0.32595062 0.94044495
 H   0.32297516 0.28552246 0.94044495
 C   0.24181366 0.07617950 0.94412994
 N   0.25821686 0.06318665 0.90794373
 N   0.25821686 0.11236572 0.95713043
 C   0.28659821 0.09288788 0.89749908
 C   0.28659821 0.12284088 0.92742157
 C   0.20946503 0.05329132 0.96701813
 H   0.30472565 0.15070343 0.92966461
 H   0.30472565 0.09064484 0.86961365
 H   0.17785645 0.06398010 0.95632935
 H   0.21287537 0.01901245 0.96087646
 H   0.21287537 0.05943298 0.00132751
 C   0.48814392 0.32960510 0.69074249
 N   0.00820160 0.31320190 0.65795898
 N   0.00820160 0.36235046 0.70711517
 C   0.04297638 0.33700562 0.65335083
 C   0.04297638 0.36695862 0.68330383
 C   0.44851685 0.31341553 0.70692444
 H   0.06518555 0.39106750 0.68929291
 H   0.06518555 0.33101654 0.62927246
 H   0.42188263 0.32948303 0.69083405
 H   0.44664001 0.27894592 0.70093536
 H   0.44664001 0.31937408 0.74136353
Zn   0.13319397 0.26119232 0.00913239
Zn   0.38320923 0.01117706 0.25914764
Zn   0.13319397 0.01117706 0.25914764
Zn   0.38320923 0.26119232 0.00913239
Zn   0.00820160 0.13616943 0.25914764
Zn   0.25821686 0.38618469 0.00913239
Zn   0.25821686 0.01117706 0.13412476
Zn   0.00820160 0.26119232 0.38414001
Zn   0.25821686 0.13616943 0.00913239
Zn   0.00820160 0.38618469 0.25914764
Zn   0.00820160 0.26119232 0.13412476
Zn   0.25821686 0.01117706 0.38414001
 C   0.32321930 0.49480438 0.19411469
 N   0.31022644 0.01117706 0.15795898
 N   0.35937500 0.01117706 0.20711517
 C   0.33989716 0.03955841 0.14748383
 C   0.36985016 0.03955841 0.17743683
 C   0.30033112 0.46242523 0.21700287
 H   0.39771271 0.05768585 0.17967987
 H   0.33765411 0.05768585 0.11962891
 H   0.27799988 0.47750854 0.23936462
 H   0.28254700 0.44252014 0.19436646
 H   0.32297516 0.44252014 0.23481750
 C   0.07661438 0.24110413 0.44071960
 N   0.06021118 0.26119232 0.40797424
 N   0.10939026 0.26119232 0.45713043
 C   0.08401489 0.29596710 0.40337372
 C   0.11396790 0.29596710 0.43331909
 C   0.06042480 0.20147705 0.45690918
 H   0.13807678 0.31814575 0.43930817
 H   0.07802582 0.31814575 0.37925720
 H   0.03609467 0.20786285 0.48126984
 H   0.04620361 0.18310547 0.43070984
 H   0.08662415 0.18310547 0.47116852
 C   0.19318390 0.02758026 0.19411469
 N   0.20618439 0.01117706 0.15795898
 N   0.15703583 0.01117706 0.20711517
 C   0.17650604 0.48279572 0.14748383
 C   0.14656067 0.48279572 0.17743683
 C   0.21607208 0.05992889 0.21700287
 H   0.11869812 0.46466827 0.17967987
 H   0.17874908 0.46466827 0.11962891
 H   0.23843384 0.04484558 0.23936462
 H   0.23388672 0.07986450 0.19436646
 H   0.19343567 0.07986450 0.23481750
 C   0.43979645 0.24110413 0.44071960
 N   0.45619965 0.26119232 0.40797424
 N   0.40705109 0.26119232 0.45713043
 C   0.43238831 0.29596710 0.40337372
 C   0.40244293 0.29596710 0.43331909
 C   0.45597839 0.20147705 0.45690918
 H   0.37832642 0.31814575 0.43930817
 H   0.43837738 0.31814575 0.37925720
 H   0.43988800 0.17487335 0.44081879
 H   0.49044800 0.19963074 0.45092010
 H   0.44998932 0.19963074 0.49137878
 C   0.06896210 0.25517273 0.06989288
 N   0.06021118 0.26119232 0.11032104
 N   0.10939026 0.26119232 0.06114197
 C   0.09725189 0.27157593 0.12813568
 C   0.12720490 0.27157593 0.09818268
 C   0.03771973 0.24334717 0.03865051
 H   0.15976715 0.27821350 0.10063934
 H   0.09970856 0.27821350 0.16069794
 H   0.03578949 0.20841980 0.03672028
 H   0.50651550 0.25624847 0.04786682
 H   0.04693604 0.25624847 0.50744629
 C   0.32061005 0.02275848 0.32153320
 N   0.31022644 0.01117706 0.36030579
 N   0.35937500 0.01117706 0.31115723
 C   0.34441376 0.49111938 0.37528992
 C   0.37436676 0.49111938 0.34534454
 C   0.29259491 0.04564667 0.29351807
 H   0.40511322 0.47827911 0.34598541
 H   0.34505463 0.47827911 0.40604401
 H   0.27375793 0.02288055 0.27468872
 H   0.27105713 0.06579590 0.31241608
 H   0.31148529 0.06579590 0.27198792
 C   0.44319916 0.27756500 0.07413483
 N   0.45619965 0.26119232 0.11032104
 N   0.40705109 0.26119232 0.06114197
 C   0.42652130 0.23278046 0.12079620
 C   0.39657593 0.23278046 0.09084320
 C   0.46608734 0.30994415 0.05124664
 H   0.36871338 0.21465302 0.08860016
 H   0.42873383 0.21465302 0.14865112
 H   0.45542908 0.34152222 0.06193542
 H   0.50039673 0.30650330 0.05738831
 H   0.45994568 0.30650330 0.01696777
 C   0.19318390 0.49480438 0.32415009
 N   0.20618439 0.01117706 0.36030579
 N   0.15703583 0.01117706 0.31115723
 C   0.17650604 0.03955841 0.37078094
 C   0.14656067 0.03955841 0.34082794
 C   0.21607208 0.46242523 0.30126190
 H   0.11869812 0.05768585 0.33858490
 H   0.17874908 0.05768585 0.39863586
 H   0.23843384 0.47750854 0.27893066
 H   0.23388672 0.44252014 0.32389832
 H   0.19343567 0.44252014 0.28347778
 C   0.19580078 0.32358551 0.02071381
 N   0.20618439 0.36235046 0.00913239
 N   0.15703583 0.31320190 0.00913239
 C   0.17198944 0.37734222 0.48907471
 C   0.14204407 0.34738922 0.48907471
 C   0.22384644 0.29557037 0.04360199
 H   0.11128998 0.34803009 0.47623444
 H   0.17134857 0.40808868 0.47623444
 H   0.24264526 0.27673340 0.02083588
 H   0.24534607 0.31446075 0.06375122
 H   0.20492554 0.27403259 0.06375122
 C   0.44581604 0.07360077 0.24756622
 N   0.45619965 0.11236572 0.25914764
 N   0.40705109 0.06318665 0.25914764
 C   0.42200470 0.12732697 0.27920532
 C   0.39205933 0.09740448 0.27920532
 C   0.47383118 0.04555511 0.22468567
 H   0.36130524 0.09804535 0.29201508
 H   0.42136383 0.15807343 0.29201508
 H   0.46931458 0.05006409 0.19024658
 H   0.50703430 0.05280304 0.23313141
 H   0.46661377 0.01234436 0.23313141
 C   0.02825928 0.19278717 0.32756042
 N   0.00820160 0.20915985 0.36030579
 N   0.00820160 0.16001129 0.31115723
 C   0.47342682 0.18534851 0.36491394
 C   0.47342682 0.15543365 0.33496094
 C   0.06791687 0.20896912 0.31137085
 H   0.45124817 0.13131714 0.32897186
 H   0.45124817 0.19133759 0.38902283
 H   0.06150055 0.23329926 0.28701019
 H   0.08628845 0.22319794 0.33757019
 H   0.08628845 0.18276978 0.29711914
 C   0.24181366 0.44617462 0.07413483
 N   0.25821686 0.45917511 0.11032104
 N   0.25821686 0.41002655 0.06114197
 C   0.28659821 0.42949677 0.12079620
 C   0.28659821 0.39955139 0.09084320
 C   0.20946503 0.46906281 0.05124664
 H   0.30472565 0.37168884 0.08860016
 H   0.30472565 0.43170929 0.14865112
 H   0.17785645 0.45840454 0.06193542
 H   0.21287537 0.50337219 0.05738831
 H   0.21287537 0.46292114 0.01696777
 C   0.07320404 0.44617462 0.24274445
 N   0.06021118 0.41002655 0.25914764
 N   0.10939026 0.45917511 0.25914764
 C   0.08991241 0.39955139 0.28752899
 C   0.11986542 0.42949677 0.28752899
 C   0.05031586 0.46906281 0.21039581
 H   0.14772797 0.43170929 0.30565643
 H   0.08766937 0.37168884 0.30565643
 H   0.06100464 0.45840454 0.17878723
 H   0.01603699 0.46292114 0.21380615
 H   0.05645752 0.50337219 0.21380615
 C   0.32321930 0.19615936 0.02553558
 N   0.31022644 0.16001129 0.00913239
 N   0.35937500 0.20915985 0.00913239
 C   0.33989716 0.14953613 0.48075104
 C   0.36985016 0.17948151 0.48075104
 C   0.30033112 0.21904755 0.05788422
 H   0.39771271 0.18172455 0.46262360
 H   0.33765411 0.12167358 0.46262360
 H   0.27799988 0.24140930 0.04280090
 H   0.28254700 0.19641113 0.07781982
 H   0.32297516 0.23686218 0.07781982
 C   0.01419067 0.20040131 0.19835663
 N   0.00820160 0.20915985 0.15795898
 N   0.00820160 0.16001129 0.20711517
 C   0.49781799 0.17214203 0.14014435
 C   0.49781799 0.14218903 0.17009735
 C   0.02604675 0.23167419 0.22962952
 H   0.49118805 0.10962677 0.16764069
 H   0.49118805 0.16968536 0.10758209
 H   0.06094360 0.23361206 0.23155975
 H   0.01311493 0.26288605 0.22041321
 H   0.01311493 0.22245789 0.26084137
 C   0.27458954 0.44617462 0.44412994
 N   0.25821686 0.45917511 0.40797424
 N   0.25821686 0.41002655 0.45713043
 C   0.22980499 0.42949677 0.39749908
 C   0.22980499 0.39955139 0.42745209
 C   0.30696869 0.46906281 0.46701813
 H   0.21167755 0.37168884 0.42966461
 H   0.21167755 0.43170929 0.36964417
 H   0.33854675 0.45840454 0.45635986
 H   0.30352783 0.50337219 0.46087646
 H   0.30352783 0.46292114 0.50132751
 C   0.19318390 0.19615936 0.49275970
 N   0.20618439 0.16001129 0.00913239
 N   0.15703583 0.20915985 0.00913239
 C   0.17650604 0.14953613 0.03751373
 C   0.14656067 0.17948151 0.03751373
 C   0.21607208 0.21904755 0.46038055
 H   0.11869812 0.18172455 0.05564117
 H   0.17874908 0.12167358 0.05564117
 H   0.23843384 0.24140930 0.47546387
 H   0.23388672 0.19641113 0.44047546
 H   0.19343567 0.23686218 0.44047546
 C   0.43979645 0.44277191 0.27920532
 N   0.45619965 0.41002655 0.25914764
 N   0.40705109 0.45917511 0.25914764
 C   0.43238831 0.40541840 0.22437286
 C   0.40244293 0.43536377 0.22437286
 C   0.45597839 0.45895386 0.31883240
 H   0.37832642 0.44135284 0.20216370
 H   0.43837738 0.38130188 0.20216370
 H   0.43988800 0.44286346 0.34546661
 H   0.49044800 0.45296478 0.32070923
 H   0.44998932 0.49342346 0.32070923
 C   0.27458954 0.07617950 0.07413483
 N   0.25821686 0.11236572 0.06114197
 N   0.25821686 0.06318665 0.11032104
 C   0.22980499 0.12284088 0.09084320
 C   0.22980499 0.09288788 0.12079620
 C   0.30696869 0.05329132 0.05124664
 H   0.21167755 0.09064484 0.14865112
 H   0.21167755 0.15070343 0.08860016
 H   0.29185486 0.03096008 0.02891541
 H   0.32687378 0.07593536 0.03346252
 H   0.32687378 0.03550720 0.07388306
 C   0.50221252 0.32195282 0.31990814
 N   0.00820160 0.36235046 0.31115723
 N   0.00820160 0.31320190 0.36030579
 C   0.01861572 0.38016510 0.34819794
 C   0.01861572 0.35024261 0.37812042
 C   0.49035645 0.29067993 0.28863525
 H   0.02522278 0.35266876 0.41068268
 H   0.02522278 0.41272736 0.35062408
 H   0.45545959 0.28874969 0.28670502
 H   0.50328827 0.29989624 0.25743103
 H   0.50328827 0.25947571 0.29785156
 C   0.07320404 0.07617950 0.27552032
 N   0.06021118 0.11236572 0.25914764
 N   0.10939026 0.06318665 0.25914764
 C   0.08991241 0.12284088 0.23073578
 C   0.11986542 0.09288788 0.23073578
 C   0.05031586 0.05329132 0.30789948
 H   0.14772797 0.09064484 0.21260834
 H   0.08766937 0.15070343 0.21260834
 H   0.06100464 0.06398010 0.33947754
 H   0.01603699 0.05943298 0.30445862
 H   0.05645752 0.01901245 0.30445862
 C   0.32321930 0.32619476 0.49275970
 N   0.31022644 0.36235046 0.00913239
 N   0.35937500 0.31320190 0.00913239
 C   0.33989716 0.37282562 0.03751373
 C   0.36985016 0.34287262 0.03751373
 C   0.30033112 0.30330658 0.46038055
 H   0.39771271 0.34062958 0.05564117
 H   0.33765411 0.40068817 0.05564117
 H   0.27799988 0.28097534 0.47546387
 H   0.28254700 0.32595062 0.44047546
 H   0.32297516 0.28552246 0.44047546
 C   0.24181366 0.07617950 0.44412994
 N   0.25821686 0.06318665 0.40797424
 N   0.25821686 0.11236572 0.45713043
 C   0.28659821 0.09288788 0.39749908
 C   0.28659821 0.12284088 0.42745209
 C   0.20946503 0.05329132 0.46701813
 H   0.30472565 0.15070343 0.42966461
 H   0.30472565 0.09064484 0.36964417
 H   0.17785645 0.06398010 0.45635986
 H   0.21287537 0.01901245 0.46087646
 H   0.21287537 0.05943298 0.50132751
 C   0.48814392 0.32960510 0.19073486
 N   0.00820160 0.31320190 0.15795898
 N   0.00820160 0.36235046 0.20711517
 C   0.04297638 0.33700562 0.15338898
 C   0.04297638 0.36695862 0.18330383
 C   0.44851685 0.31341553 0.20692444
 H   0.06518555 0.39106750 0.18929291
 H   0.06518555 0.33101654 0.12927246
 H   0.42188263 0.32948303 0.19083405
 H   0.44664001 0.27894592 0.20093536
 H   0.44664001 0.31937408 0.24136353
Ar   0.83424377 0.15515137 0.65707397
Ar   0.44409180 0.38735199 0.96695709
Ar   0.36075592 0.14473724 0.67863464
Ar   0.43058014 0.40673828 0.45731354
Ar   0.11544037 0.45259857 0.41009521
Ar   0.90338898 0.92501068 0.11569214
Ar   0.39086151 0.34978485 0.81143188
Ar   0.31535339 0.63598633 0.71801758
Ar   0.51655579 0.99821472 0.89393616
Ar   0.69260406 0.39358521 0.70938110
Ar   0.31145477 0.13340759 0.18434906
Ar   0.48242950 0.12007141 0.01957703
Ar   0.21880341 0.85663605 0.66877747
Ar   0.40483856 0.12596893 0.58049011
Ar   0.14004517 0.87672424 0.59333038
Ar   0.60736084 0.97846222 0.50655365
Ar   0.12612915 0.63936615 0.89983368
Ar   0.84262848 0.38492584 0.87228394
Ar   0.92332458 0.40898132 0.11692047
Ar   0.70771790 0.26844025 0.18305969
Ar   0.50254822 0.98617554 0.10856628
Ar   0.39900208 0.59190369 0.89332581
Ar   0.60557556 0.92384338 0.40601349
Ar   0.41767883 0.61847687 0.57833862
Ar   0.84626007 0.87819672 0.32039642
Ar   0.07989502 0.57559204 0.97177887
Ar   0.35949707 0.79387665 0.30635834
Ar   0.13678741 0.82447052 0.22547913
Ar   0.68851471 0.85140991 0.26707458
Ar   0.16305542 0.71963501 0.22492981
Ar   0.31729126 0.87985992 0.84525299
Ar   0.11498260 0.57654572 0.61837006
Ar   0.35672760 0.20998383 0.84798431
Ar   0.86536407 0.36443329 0.30218506
Ar   0.93641663 0.40049744 0.96533203
Ar   0.90329742 0.05756378 0.94972229
Ar   0.91325378 0.12047577 0.58181000
Ar   0.06128693 0.05132294 0.12337494
Ar   0.68820953 0.88172913 0.16490173
Ar   0.75797272 0.23858643 0.36337280
Ar   0.51597595 0.61506653 0.50848389
Ar   0.32825470 0.78499603 0.66115570
Ar   0.95831299 0.40028381 0.48329926
Ar   0.54358673 0.09064484 0.42382812
Ar   0.09092712 0.62821198 0.11861420
Ar   0.57854462 0.45241547 0.58258057
Ar   0.97911072 0.89238739 0.97635651
Ar   0.67675018 0.34158325 0.80645752
Ar   0.89042664 0.60631561 0.89221954
Ar   0.63282776 0.65767670 0.64435577
Ar   0.02761841 0.08987427 0.02359772
Ar   0.40477753 0.12760162 0.09379578
Ar   0.69742584 0.33110809 0.33514404
Ar   0.84696198 0.76205444 0.74597168
Ar   0.93325043 0.06975555 0.09173584
Ar   0.17948914 0.17693329 0.68257141
Ar   0.69625854 0.86145782 0.65209198
Ar   0.11307526 0.14864349 0.13095856
Ar   0.17060852 0.83104706 0.83699036
Ar   0.10182953 0.99299622 0.01616669
Ar   0.71179962 0.79003906 0.36749268
Ar   0.28626251 0.68412018 0.81674194
Ar   0.53606415 0.89294434 0.53029633
Ar   0.11611938 0.13316345 0.89682770
Ar   0.34174347 0.37899780 0.37962341
Ar   0.95008087 0.06874084 0.41934204
Ar   0.60078430 0.05492401 0.62303925
Ar   0.99625397 0.07833099 0.90223694
Ar   0.66443634 0.66304779 0.88469696
Ar   0.59999084 0.57860565 0.12657166
Ar   0.61519623 0.93972778 0.91172791
Ar   0.83022308 0.34655762 0.18447113
Ar   0.18845367 0.15331268 0.29570007
Ar   0.65399170 0.16310883 0.38739777
Ar   0.47251129 0.45794678 0.63974762
Ar   0.47167969 0.57273865 0.41353607
Ar   0.95432281 0.49980927 0.92554474
Ar   0.13199615 0.65242004 0.39028168
Ar   0.94860840 0.43226624 0.62666321
Ar   0.69005585 0.16283417 0.86558533
Ar   0.31034851 0.20061493 0.27272797
Ar   0.90726471 0.48740387 0.01736450
Ar   0.83010101 0.34922791 0.74019623
Ar   0.32717896 0.65521240 0.19718933
Ar   0.33399963 0.69293976 0.34337616
Ar   0.10678101 0.80515289 0.75592041
Ar   0.57624054 0.53111267 0.44302368
Ar   0.75815582 0.67693329 0.82752991
Ar   0.34004974 0.81848145 0.16333771
Ar   0.36096954 0.20912933 0.36389923
Ar   0.52629852 0.61457825 0.01911926
Ar   0.00144196 0.52030182 0.09625244
Ar   0.84088135 0.72383881 0.37464905
Ar   0.04635620 0.42200470 0.58356476
Ar   0.68068695 0.66630554 0.32442474
Ar   0.93852997 0.93343353 0.53840637
Ar   0.83854675 0.84121704 0.83723450
Ar   0.94802856 0.56097412 0.37845612
Ar   0.66836548 0.69963074 0.75402069
Ar   0.00000000 0.96568298 0.10804749
Ar   0.13860321 0.38333130 0.59852600
Ar   0.25189209 0.33657837 0.23866272
Ar   0.91752625 0.96559143 0.02000427
Ar   0.71905518 0.79360199 0.82052612
Ar   0.19653320 0.37509918 0.16112518
Ar   0.87718964 0.72485352 0.83680725
Ar   0.89675903 0.62065887 0.58006287
Ar   0.45339966 0.52033234 0.50630951
Ar   0.75953674 0.75305176 0.66960144
Ar   0.57455444 0.05071259 0.96701813
Ar   0.83897400 0.15278625 0.15848541
Ar   0.96774292 0.59368896 0.97399139
Ar   0.31092834 0.35196686 0.75106812
Ar   0.66455841 0.37055206 0.11925507
Ar   0.10217285 0.94676208 0.40251160
Ar   0.56131744 0.10504913 0.53131104
Ar   0.81338501 0.65039062 0.66683960
Ar   0.00512695 0.47870636 0.42201233
Ar   0.68114471 0.16080475 0.28427887
Ar   0.51434326 0.46073914 0.92772675
Ar   0.65396118 0.74684906 0.24068451
Ar   0.36886597 0.30004883 0.30934143
Ar   0.36142731 0.77056122 0.82826233
Ar   0.43392944 0.89214325 0.47100830
Ar   0.63334656 0.63294220 0.41802216
Ar   0.22486115 0.83838654 0.15654755
Ar   0.11064911 0.42928314 0.90330505
Ar   0.04675293 0.94876099 0.55594635
Ar   0.39356232 0.22521973 0.74443054
Ar   0.06380463 0.89588928 0.05155182
Ar   0.59178925 0.92282867 0.09572601
Ar   0.20703888 0.24537659 0.84165955
Ar   0.05686188 0.98583221 0.91197205
Ar   0.26009369 0.65637970 0.28888702
Ar   0.54244995 0.93828583 0.99841309
Ar   0.77996826 0.68753052 0.19863129
Ar   0.60843658 0.30825043 0.24130249
Ar   0.41042328 0.43708801 0.09928894
Ar   0.22639465 0.35844421 0.66441345
Ar   0.62112427 0.04991150 0.08663177
Ar   0.83912659 0.19582367 0.85415649
Ar   0.34229279 0.30911255 0.64288330
Ar   0.38401031 0.04299927 0.46268463
Ar   0.51778412 0.50527954 0.11019897
Ar   0.87611389 0.23044586 0.34693909
Ar   0.73923492 0.29642487 0.65654755
Ar   0.71413422 0.38692474 0.21607971
Ar   0.62468719 0.43466187 0.39949799
Ar   0.27606201 0.22832489 0.68228912
Ar   0.62339783 0.47692871 0.93691254
Ar   0.57068634 0.55559540 0.64223480
Ar   0.27886200 0.86056519 0.25469208
Ar   0.34751892 0.25808716 0.18785095
Ar   0.23567200 0.78379822 0.75629425
Ar   0.59630585 0.50817108 0.03720856
Ar   0.41094971 0.61368561 0.08479309
Ar   0.19137573 0.35079956 0.81238556
Ar   0.84324646 0.24777222 0.23279572
Ar   0.75778961 0.27200317 0.86361694
Ar   0.07814789 0.42446136 0.08847809
Ar   0.15576935 0.28183746 0.74262238
Ar   0.52804565 0.59549713 0.91298676
Ar   0.04153442 0.42707062 0.98130035
Ar   0.17914581 0.83792877 0.34921265
Ar   0.43183899 0.93825531 0.94195557
Ar   0.90074921 0.49633789 0.53591919
Ar   0.54396057 0.43318176 0.47350311
Ar   0.13608551 0.67693329 0.63790131
Ar   0.53201294 0.41472626 0.03890228
Ar   0.23720551 0.22368622 0.15095520
Ar   0.47985077 0.93229675 0.61161041
Ar   0.87042999 0.64151764 0.17067719
Ar   0.21373749 0.13868713 0.81576538
Ar   0.24362946 0.70829773 0.67175293
Ar   0.38170624 0.88096619 0.63925171
Ar   0.84401703 0.81943512 0.63655090
Ar   0.91567993 0.63066864 0.06977081
Ar   0.23474884 0.74227142 0.35062408
Ar   0.76605225 0.15779877 0.77447510
Ar   0.26073456 0.76622772 0.86804199
Ar   0.96147919 0.96325684 0.43586731
Ar   0.18243408 0.70992279 0.83299255
Ar   0.42636871 0.92427826 0.09704590
Ar   0.38938141 0.71757507 0.72778320
Ar   0.50125885 0.01464844 0.49988556
Ar   0.67518616 0.67803955 0.16616058
Ar   0.43288422 0.53286743 0.01490784
Ar   0.16090393 0.15128326 0.39904022
Ar   0.49060059 0.04435730 0.60101318
Ar   0.11387634 0.90602875 0.90177155
Ar   0.20550537 0.23975372 0.35148621
Ar   0.02654266 0.53138733 0.62718201
Ar   0.84726715 0.30917358 0.62825775
Ar   0.23388672 0.72777557 0.14334106
Ar   0.03888702 0.11291504 0.51862335
Ar   0.10813141 0.08524323 0.61943817
Ar   0.32884216 0.88059235 0.37366486
Ar   0.96630096 0.96125793 0.63283539
Ar   0.88999939 0.89887238 0.90988159
Ar   0.13936615 0.54146576 0.07054138
Ar   0.39534760 0.96472931 0.53256989
Ar   0.29852295 0.37067413 0.85133362
Ar   0.15703583 0.21032715 0.21445465
Ar   0.18108368 0.35110474 0.33191681
Ar   0.15626526 0.71489716 0.73134613
Ar   0.83971405 0.84929657 0.22348785
Ar   0.31894684 0.85110474 0.74289703
Ar   0.63110352 0.54428864 0.54836273
Ar   0.67810822 0.23834229 0.77490997
Ar   0.92160797 0.58001709 0.47537231
Ar   0.80140686 0.15552521 0.29960632
Ar   0.05210114 0.58711243 0.42502594
Ar   0.71588898 0.19859314 0.67369080
Ar   0.41463470 0.01673889 0.04132843
Ar   0.47238159 0.01612091 0.40263367
Ar   0.87338257 0.75130463 0.26750183
Ar   0.05363464 0.04542542 0.43457794
Ar   0.78688049 0.67121887 0.29754639
Ar   0.65153503 0.37374115 0.59864807
Ar   0.59556580 0.13236237 0.88518524
Ar   0.10892487 0.51818085 0.52310944
Ar   0.59494781 0.14243317 0.12518311
Ar   0.77369690 0.79222107 0.14582825
Ar   0.42166901 0.06529999 0.92852783
Ar   0.04389954 0.60932159 0.54405975
Ar   0.27167511 0.75326538 0.24941254
Ar   0.13258362 0.31596375 0.23558807
Ar   0.86656189 0.22988892 0.75647736
Ar   0.13825989 0.88971710 0.11050415
Ar   0.39291382 0.11991882 0.39117432
Ar   0.59891510 0.91548920 0.60389709
Ar   0.76153564 0.77124023 0.26000977
Ar   0.02626801 0.87396240 0.49356079
Ar   0.99275208 0.04343414 0.58039856
Ar   0.11746979 0.05252075 0.51358795
Ar   0.37946320 0.47327423 0.58515930
Ar   0.74765015 0.84499359 0.72898102
Ar   0.88382721 0.04075623 0.47930908
Ar   0.39589691 0.71956635 0.24102783
Ar   0.99831390 0.49195099 0.52117157
