data_subtitutions
_audit_creation_method    igor
_audit_author_name 'sponge bob'
_cell_length_a    32.5540009
_cell_length_b    32.5540009
_cell_length_c    32.5540009
_cell_angle_alpha    90.0000000
_cell_angle_beta    90.0000000
_cell_angle_gamma    90.0000000
_cell_volume 34499.5234375
_symmetry_space_group_name_hall 'p 1'
_symmetry_space_group_name_h-m 'p 1'
_symmetry_int_tables_number 1
_symmetry_equiv_pos_as_xyz 'x,y,z'
loop_
_atom_site_label
_atom_site_fract_x
_atom_site_fract_y
_atom_site_fract_z
Zn   0.63352203 0.76130676 0.50945282
Zn   0.88353729 0.51129150 0.75946808
Zn   0.63352203 0.51129150 0.75946808
Zn   0.88353729 0.76130676 0.50945282
Zn   0.50852966 0.63628387 0.75946808
Zn   0.75854492 0.88629913 0.50945282
Zn   0.75854492 0.51129150 0.63444519
Zn   0.50852966 0.76130676 0.88446045
Zn   0.75854492 0.63628387 0.50945282
Zn   0.50852966 0.88629913 0.75946808
Zn   0.50852966 0.76130676 0.63444519
Zn   0.75854492 0.51129150 0.88446045
 C   0.82353973 0.99491882 0.69444275
 N   0.81054688 0.51129150 0.65828705
 N   0.85969543 0.51129150 0.70743561
 C   0.84021759 0.53967285 0.64781189
 C   0.87017059 0.53967285 0.67775726
 C   0.80065918 0.96253967 0.71732330
 H   0.89803314 0.55780029 0.68000031
 H   0.83798218 0.55780029 0.61994934
 H   0.77828979 0.97762299 0.73968506
 H   0.78283691 0.94260406 0.69468689
 H   0.82329559 0.94260406 0.73513794
 C   0.57693481 0.74121857 0.94104767
 N   0.56053162 0.76130676 0.90827179
 N   0.60971069 0.76130676 0.95745087
 C   0.58433533 0.79608154 0.90369415
 C   0.61428833 0.79608154 0.93363953
 C   0.56074524 0.70159149 0.95723724
 H   0.63840485 0.81826019 0.93963623
 H   0.57834625 0.81826019 0.87957764
 H   0.53638458 0.70797729 0.98159027
 H   0.54652405 0.68321991 0.93103027
 H   0.58695221 0.68321991 0.97148895
 C   0.69351196 0.52766418 0.69444275
 N   0.70650482 0.51129150 0.65828705
 N   0.65735626 0.51129150 0.70743561
 C   0.67683411 0.98291016 0.64781189
 C   0.64688110 0.98291016 0.67775726
 C   0.71639252 0.56004333 0.71732330
 H   0.61901855 0.96478271 0.68000031
 H   0.67907715 0.96478271 0.61994934
 H   0.73876190 0.54496002 0.73968506
 H   0.73421478 0.57997894 0.69468689
 H   0.69375610 0.57997894 0.73513794
 C   0.94011688 0.74121857 0.94104767
 N   0.95652008 0.76130676 0.90827179
 N   0.90734100 0.76130676 0.95745087
 C   0.93271637 0.79608154 0.90369415
 C   0.90276337 0.79608154 0.93363953
 C   0.95630646 0.70159149 0.95723724
 H   0.87864685 0.81826019 0.93963623
 H   0.93870544 0.81826019 0.87957764
 H   0.94020844 0.67495728 0.94113922
 H   0.99076843 0.69974518 0.95124054
 H   0.95031738 0.69974518 0.99169922
 C   0.56929016 0.75528717 0.57021332
 N   0.56053162 0.76130676 0.61064148
 N   0.60971069 0.76130676 0.56146240
 C   0.59757996 0.77169037 0.62845612
 C   0.62752533 0.77169037 0.59851074
 C   0.53804779 0.74346161 0.53897858
 H   0.66005707 0.77832794 0.60096741
 H   0.60003662 0.77832794 0.66098785
 H   0.53610992 0.70853424 0.53704071
 H   0.00683594 0.75636292 0.54818726
 H   0.54726410 0.75636292 0.00776672
 C   0.82093048 0.52287292 0.82186127
 N   0.81054688 0.51129150 0.86062622
 N   0.85969543 0.51129150 0.81147766
 C   0.84473419 0.99123383 0.87561798
 C   0.87468719 0.99123383 0.84566498
 C   0.79291534 0.54575348 0.79384613
 H   0.90543365 0.97839355 0.84631348
 H   0.84538269 0.97839355 0.90636444
 H   0.77408600 0.52299500 0.77501678
 H   0.77138519 0.56591034 0.81273651
 H   0.81180573 0.56591034 0.77230835
 C   0.94352722 0.77767944 0.57445526
 N   0.95652008 0.76130676 0.61064148
 N   0.90734100 0.76130676 0.56146240
 C   0.92681885 0.73289490 0.62111664
 C   0.89689636 0.73289490 0.59116364
 C   0.96640778 0.81005859 0.55156708
 H   0.86900330 0.71476746 0.58892059
 H   0.92906189 0.71476746 0.64897919
 H   0.95571899 0.84163666 0.56226349
 H   0.00072479 0.80661774 0.55771637
 H   0.96026611 0.80661774 0.51725769
 C   0.69351196 0.99491882 0.82447052
 N   0.70650482 0.51129150 0.86062622
 N   0.65735626 0.51129150 0.81147766
 C   0.67683411 0.53967285 0.87110138
 C   0.64688110 0.53967285 0.84114838
 C   0.71639252 0.96253967 0.80158234
 H   0.61901855 0.55780029 0.83890533
 H   0.67907715 0.55780029 0.89896393
 H   0.73876190 0.97762299 0.77922058
 H   0.73421478 0.94260406 0.82422638
 H   0.69375610 0.94260406 0.78376770
 C   0.69612122 0.82369232 0.52103424
 N   0.70650482 0.86246490 0.50945282
 N   0.65735626 0.81330872 0.50945282
 C   0.67231750 0.87744904 0.98939514
 C   0.64236450 0.84750366 0.98939514
 C   0.72413635 0.79567719 0.54392242
 H   0.61161804 0.84814453 0.97655487
 H   0.67166901 0.90820312 0.97655487
 H   0.74296570 0.77684784 0.52115631
 H   0.74567413 0.81457520 0.56407166
 H   0.70524597 0.77414703 0.56407166
 C   0.94613647 0.57370758 0.74785614
 N   0.95652008 0.61248016 0.75946808
 N   0.90734100 0.56329346 0.75946808
 C   0.92230225 0.62743378 0.77952576
 C   0.89237976 0.59751892 0.77952576
 C   0.97415161 0.54566193 0.72497559
 H   0.86163330 0.59812927 0.79233551
 H   0.92168427 0.65818787 0.79233551
 H   0.96963501 0.55017853 0.69056702
 H   0.00736237 0.55291748 0.73345184
 H   0.96693420 0.51245880 0.73345184
 C   0.52858734 0.69289398 0.82785034
 N   0.50852966 0.70926666 0.86062622
 N   0.50852966 0.66011810 0.81147766
 C   0.97375488 0.68546295 0.86523438
 C   0.97375488 0.65550995 0.83528137
 C   0.56824493 0.70908356 0.81169128
 H   0.95157623 0.63143158 0.82929230
 H   0.95157623 0.69145203 0.88934326
 H   0.56182098 0.73341370 0.78733063
 H   0.58660889 0.72330475 0.83786011
 H   0.58660889 0.68288422 0.79743958
 C   0.74214172 0.94628906 0.57445526
 N   0.75854492 0.95928192 0.61064148
 N   0.75854492 0.91010284 0.56146240
 C   0.78692627 0.92958069 0.62111664
 C   0.78692627 0.89965820 0.59116364
 C   0.70979309 0.96917725 0.55156708
 H   0.80504608 0.87177277 0.58892059
 H   0.80504608 0.93182373 0.64897919
 H   0.67818451 0.95848846 0.56226349
 H   0.71320343 0.00348663 0.55771637
 H   0.71320343 0.96303558 0.51725769
 C   0.57352448 0.94628906 0.74306488
 N   0.56053162 0.91010284 0.75946808
 N   0.60971069 0.95928192 0.75946808
 C   0.59023285 0.89965820 0.78785706
 C   0.62018585 0.92958069 0.78785706
 C   0.55064392 0.96917725 0.71072388
 H   0.64804840 0.93182373 0.80597687
 H   0.58799744 0.87177277 0.80597687
 H   0.56133270 0.95848846 0.67911530
 H   0.51632690 0.96303558 0.71413422
 H   0.55678558 0.00348663 0.71413422
 C   0.82353973 0.69627380 0.52582550
 N   0.81054688 0.66011810 0.50945282
 N   0.85969543 0.70926666 0.50945282
 C   0.84021759 0.64964294 0.98107147
 C   0.87017059 0.67959595 0.98107147
 C   0.80065918 0.71916199 0.55820465
 H   0.89803314 0.68183899 0.96294403
 H   0.83798218 0.62178802 0.96294403
 H   0.77828979 0.74152374 0.54312134
 H   0.78283691 0.69652557 0.57814026
 H   0.82329559 0.73697662 0.57814026
 C   0.51451874 0.70051575 0.69867706
 N   0.50852966 0.70926666 0.65828705
 N   0.50852966 0.66011810 0.70743561
 C   0.99814606 0.67225647 0.64046478
 C   0.99814606 0.64230347 0.67041779
 C   0.52637482 0.73178864 0.72994995
 H   0.99150848 0.60974121 0.66796112
 H   0.99150848 0.66979980 0.60791016
 H   0.56127167 0.73371887 0.73188782
 H   0.51344299 0.76299286 0.72073364
 H   0.51344299 0.72257233 0.76116180
 C   0.77491760 0.94628906 0.94445801
 N   0.75854492 0.95928192 0.90827179
 N   0.75854492 0.91010284 0.95745087
 C   0.73012543 0.92958069 0.89782715
 C   0.73012543 0.89965820 0.92774200
 C   0.80728912 0.96917725 0.96733856
 H   0.71200562 0.87177277 0.92998505
 H   0.71200562 0.93182373 0.86993408
 H   0.83886719 0.95848846 0.95664978
 H   0.80384827 0.00348663 0.96119690
 H   0.80384827 0.96303558 0.00165558
 C   0.69351196 0.69627380 0.99308014
 N   0.70650482 0.66011810 0.50945282
 N   0.65735626 0.70926666 0.50945282
 C   0.67683411 0.64964294 0.53784180
 C   0.64688110 0.67959595 0.53784180
 C   0.71639252 0.71916199 0.96070862
 H   0.61901855 0.68183899 0.55596161
 H   0.67907715 0.62178802 0.55596161
 H   0.73876190 0.74152374 0.97578430
 H   0.73421478 0.69652557 0.94077301
 H   0.69375610 0.73697662 0.94077301
 C   0.94011688 0.94287872 0.77952576
 N   0.95652008 0.91010284 0.75946808
 N   0.90734100 0.95928192 0.75946808
 C   0.93271637 0.90552521 0.72467041
 C   0.90276337 0.93547821 0.72467041
 C   0.95630646 0.95906830 0.81915283
 H   0.87864685 0.94146729 0.70249176
 H   0.93870544 0.88141632 0.70249176
 H   0.94020844 0.94297028 0.84578705
 H   0.99076843 0.95307922 0.82102966
 H   0.95031738 0.99353790 0.82102966
 C   0.77491760 0.57629395 0.57445526
 N   0.75854492 0.61248016 0.56146240
 N   0.75854492 0.56329346 0.61064148
 C   0.73012543 0.62295532 0.59116364
 C   0.73012543 0.59300232 0.62111664
 C   0.80728912 0.55340576 0.55156708
 H   0.71200562 0.59075928 0.64897919
 H   0.71200562 0.65081024 0.58892059
 H   0.79217529 0.53107452 0.52923584
 H   0.82719421 0.57604218 0.53378296
 H   0.82719421 0.53562164 0.57421112
 C   0.00253296 0.82206726 0.82022858
 N   0.50852966 0.86246490 0.81147766
 N   0.50852966 0.81330872 0.86062622
 C   0.51890564 0.88027954 0.84852600
 C   0.51890564 0.85035706 0.87844086
 C   0.99067688 0.79079437 0.78896332
 H   0.52554321 0.85278320 0.91100311
 H   0.52554321 0.91284180 0.85095215
 H   0.95578003 0.78886414 0.78702545
 H   0.00360870 0.80001068 0.75775146
 H   0.00360870 0.75959015 0.79817200
 C   0.57352448 0.57629395 0.77584076
 N   0.56053162 0.61248016 0.75946808
 N   0.60971069 0.56329346 0.75946808
 C   0.59023285 0.62295532 0.73105621
 C   0.62018585 0.59300232 0.73105621
 C   0.55064392 0.55340576 0.80821991
 H   0.64804840 0.59075928 0.71292877
 H   0.58799744 0.65081024 0.71292877
 H   0.56133270 0.56409454 0.83979797
 H   0.51632690 0.55954742 0.80477905
 H   0.55678558 0.51909637 0.80477905
 C   0.82353973 0.82630920 0.99308014
 N   0.81054688 0.86246490 0.50945282
 N   0.85969543 0.81330872 0.50945282
 C   0.84021759 0.87294006 0.53784180
 C   0.87017059 0.84298706 0.53784180
 C   0.80065918 0.80342102 0.96070862
 H   0.89803314 0.84074402 0.55596161
 H   0.83798218 0.90079498 0.55596161
 H   0.77828979 0.78105927 0.97578430
 H   0.78283691 0.82605743 0.94077301
 H   0.82329559 0.78560638 0.94077301
 C   0.74214172 0.57629395 0.94445801
 N   0.75854492 0.56329346 0.90827179
 N   0.75854492 0.61248016 0.95745087
 C   0.78692627 0.59300232 0.89782715
 C   0.78692627 0.62295532 0.92774200
 C   0.70979309 0.55340576 0.96733856
 H   0.80504608 0.65081024 0.92998505
 H   0.80504608 0.59075928 0.86993408
 H   0.67818451 0.56409454 0.95664978
 H   0.71320343 0.51909637 0.96119690
 H   0.71320343 0.55954742 0.00165558
 C   0.98846436 0.82968903 0.69106293
 N   0.50852966 0.81330872 0.65828705
 N   0.50852966 0.86246490 0.70743561
 C   0.54329681 0.83712006 0.65367889
 C   0.54329681 0.86707306 0.68362427
 C   0.94880676 0.81352997 0.70725250
 H   0.56547546 0.89118195 0.68962097
 H   0.56547546 0.83113098 0.62959290
 H   0.92221069 0.82958984 0.69115448
 H   0.94696808 0.77906036 0.70125580
 H   0.94696808 0.81948853 0.74168396
Zn   0.63352203 0.76130676 0.00945282
Zn   0.88353729 0.51129150 0.25946808
Zn   0.63352203 0.51129150 0.25946808
Zn   0.88353729 0.76130676 0.00945282
Zn   0.50852966 0.63628387 0.25946808
Zn   0.75854492 0.88629913 0.00945282
Zn   0.75854492 0.51129150 0.13444519
Zn   0.50852966 0.76130676 0.38446045
Zn   0.75854492 0.63628387 0.00945282
Zn   0.50852966 0.88629913 0.25946808
Zn   0.50852966 0.76130676 0.13444519
Zn   0.75854492 0.51129150 0.38446045
 C   0.82353973 0.99491882 0.19444275
 N   0.81054688 0.51129150 0.15828705
 N   0.85969543 0.51129150 0.20743561
 C   0.84021759 0.53967285 0.14781189
 C   0.87017059 0.53967285 0.17775726
 C   0.80065918 0.96253967 0.21732330
 H   0.89803314 0.55780029 0.18000031
 H   0.83798218 0.55780029 0.11994934
 H   0.77828979 0.97762299 0.23968506
 H   0.78283691 0.94260406 0.19468689
 H   0.82329559 0.94260406 0.23513794
 C   0.57693481 0.74121857 0.44104767
 N   0.56053162 0.76130676 0.40830231
 N   0.60971069 0.76130676 0.45745087
 C   0.58433533 0.79608154 0.40369415
 C   0.61428833 0.79608154 0.43363953
 C   0.56074524 0.70159149 0.45723724
 H   0.63840485 0.81826019 0.43963623
 H   0.57834625 0.81826019 0.37957764
 H   0.53638458 0.70797729 0.48159027
 H   0.54652405 0.68321991 0.43103027
 H   0.58695221 0.68321991 0.47148895
 C   0.69351196 0.52766418 0.19444275
 N   0.70650482 0.51129150 0.15828705
 N   0.65735626 0.51129150 0.20743561
 C   0.67683411 0.98291016 0.14781189
 C   0.64688110 0.98291016 0.17775726
 C   0.71639252 0.56004333 0.21732330
 H   0.61901855 0.96478271 0.18000031
 H   0.67907715 0.96478271 0.11994934
 H   0.73876190 0.54496002 0.23968506
 H   0.73421478 0.57997894 0.19468689
 H   0.69375610 0.57997894 0.23513794
 C   0.94011688 0.74121857 0.44104767
 N   0.95652008 0.76130676 0.40830231
 N   0.90734100 0.76130676 0.45745087
 C   0.93271637 0.79608154 0.40369415
 C   0.90276337 0.79608154 0.43363953
 C   0.95630646 0.70159149 0.45723724
 H   0.87864685 0.81826019 0.43963623
 H   0.93870544 0.81826019 0.37957764
 H   0.94020844 0.67495728 0.44113922
 H   0.99076843 0.69974518 0.45124054
 H   0.95031738 0.69974518 0.49169922
 C   0.56929016 0.75528717 0.07021332
 N   0.56053162 0.76130676 0.11064148
 N   0.60971069 0.76130676 0.06146240
 C   0.59757996 0.77169037 0.12845612
 C   0.62752533 0.77169037 0.09851074
 C   0.53804779 0.74346161 0.03897858
 H   0.66005707 0.77832794 0.10096741
 H   0.60003662 0.77832794 0.16101837
 H   0.53610992 0.70853424 0.03704071
 H   0.00683594 0.75636292 0.04818726
 H   0.54726410 0.75636292 0.50776672
 C   0.82093048 0.52287292 0.32186127
 N   0.81054688 0.51129150 0.36062622
 N   0.85969543 0.51129150 0.31147766
 C   0.84473419 0.99123383 0.37561798
 C   0.87468719 0.99123383 0.34566498
 C   0.79291534 0.54575348 0.29384613
 H   0.90543365 0.97839355 0.34631348
 H   0.84538269 0.97839355 0.40636444
 H   0.77408600 0.52299500 0.27501678
 H   0.77138519 0.56591034 0.31273651
 H   0.81180573 0.56591034 0.27230835
 C   0.94352722 0.77767944 0.07445526
 N   0.95652008 0.76130676 0.11064148
 N   0.90734100 0.76130676 0.06146240
 C   0.92681885 0.73289490 0.12111664
 C   0.89689636 0.73289490 0.09116364
 C   0.96640778 0.81005859 0.05156708
 H   0.86900330 0.71476746 0.08892059
 H   0.92906189 0.71476746 0.14897919
 H   0.95571899 0.84163666 0.06226349
 H   0.00072479 0.80661774 0.05771637
 H   0.96026611 0.80661774 0.01728821
 C   0.69351196 0.99491882 0.32447052
 N   0.70650482 0.51129150 0.36062622
 N   0.65735626 0.51129150 0.31147766
 C   0.67683411 0.53967285 0.37110138
 C   0.64688110 0.53967285 0.34114838
 C   0.71639252 0.96253967 0.30158234
 H   0.61901855 0.55780029 0.33890533
 H   0.67907715 0.55780029 0.39896393
 H   0.73876190 0.97762299 0.27925110
 H   0.73421478 0.94260406 0.32422638
 H   0.69375610 0.94260406 0.28379822
 C   0.69612122 0.82369232 0.02103424
 N   0.70650482 0.86246490 0.00945282
 N   0.65735626 0.81330872 0.00945282
 C   0.67231750 0.87744904 0.48939514
 C   0.64236450 0.84750366 0.48939514
 C   0.72413635 0.79567719 0.04392242
 H   0.61161804 0.84814453 0.47655487
 H   0.67166901 0.90820312 0.47655487
 H   0.74296570 0.77684784 0.02115631
 H   0.74567413 0.81457520 0.06407166
 H   0.70524597 0.77414703 0.06407166
 C   0.94613647 0.57370758 0.24788666
 N   0.95652008 0.61248016 0.25946808
 N   0.90734100 0.56329346 0.25946808
 C   0.92230225 0.62743378 0.27952576
 C   0.89237976 0.59751892 0.27952576
 C   0.97415161 0.54566193 0.22500610
 H   0.86163330 0.59812927 0.29233551
 H   0.92168427 0.65818787 0.29233551
 H   0.96963501 0.55017853 0.19056702
 H   0.00736237 0.55291748 0.23345184
 H   0.96693420 0.51245880 0.23345184
 C   0.52858734 0.69289398 0.32788086
 N   0.50852966 0.70926666 0.36062622
 N   0.50852966 0.66011810 0.31147766
 C   0.97375488 0.68546295 0.36523438
 C   0.97375488 0.65550995 0.33528137
 C   0.56824493 0.70908356 0.31169128
 H   0.95157623 0.63143158 0.32929230
 H   0.95157623 0.69145203 0.38934326
 H   0.56182098 0.73341370 0.28733063
 H   0.58660889 0.72330475 0.33789062
 H   0.58660889 0.68288422 0.29743958
 C   0.74214172 0.94628906 0.07445526
 N   0.75854492 0.95928192 0.11064148
 N   0.75854492 0.91010284 0.06146240
 C   0.78692627 0.92958069 0.12111664
 C   0.78692627 0.89965820 0.09116364
 C   0.70979309 0.96917725 0.05156708
 H   0.80504608 0.87177277 0.08892059
 H   0.80504608 0.93182373 0.14897919
 H   0.67818451 0.95848846 0.06226349
 H   0.71320343 0.00348663 0.05771637
 H   0.71320343 0.96303558 0.01728821
 C   0.57352448 0.94628906 0.24306488
 N   0.56053162 0.91010284 0.25946808
 N   0.60971069 0.95928192 0.25946808
 C   0.59023285 0.89965820 0.28785706
 C   0.62018585 0.92958069 0.28785706
 C   0.55064392 0.96917725 0.21072388
 H   0.64804840 0.93182373 0.30597687
 H   0.58799744 0.87177277 0.30597687
 H   0.56133270 0.95848846 0.17911530
 H   0.51632690 0.96303558 0.21413422
 H   0.55678558 0.00348663 0.21413422
 C   0.82353973 0.69627380 0.02585602
 N   0.81054688 0.66011810 0.00945282
 N   0.85969543 0.70926666 0.00945282
 C   0.84021759 0.64964294 0.48107147
 C   0.87017059 0.67959595 0.48107147
 C   0.80065918 0.71916199 0.05820465
 H   0.89803314 0.68183899 0.46295166
 H   0.83798218 0.62178802 0.46295166
 H   0.77828979 0.74152374 0.04312134
 H   0.78283691 0.69652557 0.07814026
 H   0.82329559 0.73697662 0.07814026
 C   0.51451874 0.70051575 0.19867706
 N   0.50852966 0.70926666 0.15828705
 N   0.50852966 0.66011810 0.20743561
 C   0.99814606 0.67225647 0.14046478
 C   0.99814606 0.64230347 0.17041779
 C   0.52637482 0.73178864 0.22994995
 H   0.99150848 0.60974121 0.16796112
 H   0.99150848 0.66979980 0.10791016
 H   0.56127167 0.73371887 0.23188782
 H   0.51344299 0.76299286 0.22073364
 H   0.51344299 0.72257233 0.26116180
 C   0.77491760 0.94628906 0.44445801
 N   0.75854492 0.95928192 0.40830231
 N   0.75854492 0.91010284 0.45745087
 C   0.73012543 0.92958069 0.39782715
 C   0.73012543 0.89965820 0.42777252
 C   0.80728912 0.96917725 0.46733856
 H   0.71200562 0.87177277 0.42998505
 H   0.71200562 0.93182373 0.36996460
 H   0.83886719 0.95848846 0.45668030
 H   0.80384827 0.00348663 0.46119690
 H   0.80384827 0.96303558 0.50165558
 C   0.69351196 0.69627380 0.49308014
 N   0.70650482 0.66011810 0.00945282
 N   0.65735626 0.70926666 0.00945282
 C   0.67683411 0.64964294 0.03784180
 C   0.64688110 0.67959595 0.03784180
 C   0.71639252 0.71916199 0.46070862
 H   0.61901855 0.68183899 0.05596161
 H   0.67907715 0.62178802 0.05596161
 H   0.73876190 0.74152374 0.47578430
 H   0.73421478 0.69652557 0.44080353
 H   0.69375610 0.73697662 0.44080353
 C   0.94011688 0.94287872 0.27952576
 N   0.95652008 0.91010284 0.25946808
 N   0.90734100 0.95928192 0.25946808
 C   0.93271637 0.90552521 0.22470093
 C   0.90276337 0.93547821 0.22470093
 C   0.95630646 0.95906830 0.31915283
 H   0.87864685 0.94146729 0.20249176
 H   0.93870544 0.88141632 0.20249176
 H   0.94020844 0.94297028 0.34578705
 H   0.99076843 0.95307922 0.32102966
 H   0.95031738 0.99353790 0.32102966
 C   0.77491760 0.57629395 0.07445526
 N   0.75854492 0.61248016 0.06146240
 N   0.75854492 0.56329346 0.11064148
 C   0.73012543 0.62295532 0.09116364
 C   0.73012543 0.59300232 0.12111664
 C   0.80728912 0.55340576 0.05156708
 H   0.71200562 0.59075928 0.14897919
 H   0.71200562 0.65081024 0.08892059
 H   0.79217529 0.53107452 0.02923584
 H   0.82719421 0.57604218 0.03378296
 H   0.82719421 0.53562164 0.07421112
 C   0.00253296 0.82206726 0.32022858
 N   0.50852966 0.86246490 0.31147766
 N   0.50852966 0.81330872 0.36062622
 C   0.51890564 0.88027954 0.34852600
 C   0.51890564 0.85035706 0.37844086
 C   0.99067688 0.79079437 0.28896332
 H   0.52554321 0.85278320 0.41100311
 H   0.52554321 0.91284180 0.35095215
 H   0.95578003 0.78886414 0.28702545
 H   0.00360870 0.80001068 0.25775146
 H   0.00360870 0.75959015 0.29817200
 C   0.57352448 0.57629395 0.27584076
 N   0.56053162 0.61248016 0.25946808
 N   0.60971069 0.56329346 0.25946808
 C   0.59023285 0.62295532 0.23105621
 C   0.62018585 0.59300232 0.23105621
 C   0.55064392 0.55340576 0.30821991
 H   0.64804840 0.59075928 0.21292877
 H   0.58799744 0.65081024 0.21292877
 H   0.56133270 0.56409454 0.33979797
 H   0.51632690 0.55954742 0.30477905
 H   0.55678558 0.51909637 0.30477905
 C   0.82353973 0.82630920 0.49308014
 N   0.81054688 0.86246490 0.00945282
 N   0.85969543 0.81330872 0.00945282
 C   0.84021759 0.87294006 0.03784180
 C   0.87017059 0.84298706 0.03784180
 C   0.80065918 0.80342102 0.46070862
 H   0.89803314 0.84074402 0.05596161
 H   0.83798218 0.90079498 0.05596161
 H   0.77828979 0.78105927 0.47578430
 H   0.78283691 0.82605743 0.44080353
 H   0.82329559 0.78560638 0.44080353
 C   0.74214172 0.57629395 0.44445801
 N   0.75854492 0.56329346 0.40830231
 N   0.75854492 0.61248016 0.45745087
 C   0.78692627 0.59300232 0.39782715
 C   0.78692627 0.62295532 0.42777252
 C   0.70979309 0.55340576 0.46733856
 H   0.80504608 0.65081024 0.42998505
 H   0.80504608 0.59075928 0.36996460
 H   0.67818451 0.56409454 0.45668030
 H   0.71320343 0.51909637 0.46119690
 H   0.71320343 0.55954742 0.50165558
 C   0.98846436 0.82968903 0.19106293
 N   0.50852966 0.81330872 0.15828705
 N   0.50852966 0.86246490 0.20743561
 C   0.54329681 0.83712006 0.15370941
 C   0.54329681 0.86707306 0.18362427
 C   0.94880676 0.81352997 0.20725250
 H   0.56547546 0.89118195 0.18962097
 H   0.56547546 0.83113098 0.12959290
 H   0.92221069 0.82958984 0.19115448
 H   0.94696808 0.77906036 0.20125580
 H   0.94696808 0.81948853 0.24168396
Zn   0.63352203 0.26130676 0.50945282
Zn   0.88353729 0.01129150 0.75946808
Zn   0.63352203 0.01129150 0.75946808
Zn   0.88353729 0.26130676 0.50945282
Zn   0.50852966 0.13628387 0.75946808
Zn   0.75854492 0.38629913 0.50945282
Zn   0.75854492 0.01129150 0.63444519
Zn   0.50852966 0.26130676 0.88446045
Zn   0.75854492 0.13628387 0.50945282
Zn   0.50852966 0.38629913 0.75946808
Zn   0.50852966 0.26130676 0.63444519
Zn   0.75854492 0.01129150 0.88446045
 C   0.82353973 0.49491882 0.69444275
 N   0.81054688 0.01129150 0.65828705
 N   0.85969543 0.01129150 0.70743561
 C   0.84021759 0.03967285 0.64781189
 C   0.87017059 0.03967285 0.67775726
 C   0.80065918 0.46253967 0.71732330
 H   0.89803314 0.05780029 0.68000031
 H   0.83798218 0.05780029 0.61994934
 H   0.77828979 0.47762299 0.73968506
 H   0.78283691 0.44263458 0.69468689
 H   0.82329559 0.44263458 0.73513794
 C   0.57693481 0.24121857 0.94104767
 N   0.56053162 0.26130676 0.90827179
 N   0.60971069 0.26130676 0.95745087
 C   0.58433533 0.29608154 0.90369415
 C   0.61428833 0.29608154 0.93363953
 C   0.56074524 0.20159149 0.95723724
 H   0.63840485 0.31826019 0.93963623
 H   0.57834625 0.31826019 0.87957764
 H   0.53638458 0.20797729 0.98159027
 H   0.54652405 0.18321991 0.93103027
 H   0.58695221 0.18321991 0.97148895
 C   0.69351196 0.02769470 0.69444275
 N   0.70650482 0.01129150 0.65828705
 N   0.65735626 0.01129150 0.70743561
 C   0.67683411 0.48291016 0.64781189
 C   0.64688110 0.48291016 0.67775726
 C   0.71639252 0.06004333 0.71732330
 H   0.61901855 0.46478271 0.68000031
 H   0.67907715 0.46478271 0.61994934
 H   0.73876190 0.04496002 0.73968506
 H   0.73421478 0.07997894 0.69468689
 H   0.69375610 0.07997894 0.73513794
 C   0.94011688 0.24121857 0.94104767
 N   0.95652008 0.26130676 0.90827179
 N   0.90734100 0.26130676 0.95745087
 C   0.93271637 0.29608154 0.90369415
 C   0.90276337 0.29608154 0.93363953
 C   0.95630646 0.20159149 0.95723724
 H   0.87864685 0.31826019 0.93963623
 H   0.93870544 0.31826019 0.87957764
 H   0.94020844 0.17498779 0.94113922
 H   0.99076843 0.19974518 0.95124054
 H   0.95031738 0.19974518 0.99169922
 C   0.56929016 0.25528717 0.57021332
 N   0.56053162 0.26130676 0.61064148
 N   0.60971069 0.26130676 0.56146240
 C   0.59757996 0.27169037 0.62845612
 C   0.62752533 0.27169037 0.59851074
 C   0.53804779 0.24346161 0.53897858
 H   0.66005707 0.27832794 0.60096741
 H   0.60003662 0.27832794 0.66098785
 H   0.53610992 0.20853424 0.53704071
 H   0.00683594 0.25636292 0.54818726
 H   0.54726410 0.25636292 0.00776672
 C   0.82093048 0.02287292 0.82186127
 N   0.81054688 0.01129150 0.86062622
 N   0.85969543 0.01129150 0.81147766
 C   0.84473419 0.49123383 0.87561798
 C   0.87468719 0.49123383 0.84566498
 C   0.79291534 0.04575348 0.79384613
 H   0.90543365 0.47839355 0.84631348
 H   0.84538269 0.47839355 0.90636444
 H   0.77408600 0.02299500 0.77501678
 H   0.77138519 0.06591034 0.81273651
 H   0.81180573 0.06591034 0.77230835
 C   0.94352722 0.27767944 0.57445526
 N   0.95652008 0.26130676 0.61064148
 N   0.90734100 0.26130676 0.56146240
 C   0.92681885 0.23289490 0.62111664
 C   0.89689636 0.23289490 0.59116364
 C   0.96640778 0.31005859 0.55156708
 H   0.86900330 0.21476746 0.58892059
 H   0.92906189 0.21476746 0.64897919
 H   0.95571899 0.34163666 0.56226349
 H   0.00072479 0.30661774 0.55771637
 H   0.96026611 0.30661774 0.51725769
 C   0.69351196 0.49491882 0.82447052
 N   0.70650482 0.01129150 0.86062622
 N   0.65735626 0.01129150 0.81147766
 C   0.67683411 0.03967285 0.87110138
 C   0.64688110 0.03967285 0.84114838
 C   0.71639252 0.46253967 0.80158234
 H   0.61901855 0.05780029 0.83890533
 H   0.67907715 0.05780029 0.89896393
 H   0.73876190 0.47762299 0.77922058
 H   0.73421478 0.44263458 0.82422638
 H   0.69375610 0.44263458 0.78376770
 C   0.69612122 0.32369232 0.52103424
 N   0.70650482 0.36246490 0.50945282
 N   0.65735626 0.31330872 0.50945282
 C   0.67231750 0.37744904 0.98939514
 C   0.64236450 0.34750366 0.98939514
 C   0.72413635 0.29567719 0.54392242
 H   0.61161804 0.34814453 0.97655487
 H   0.67166901 0.40820312 0.97655487
 H   0.74296570 0.27684784 0.52115631
 H   0.74567413 0.31457520 0.56407166
 H   0.70524597 0.27414703 0.56407166
 C   0.94613647 0.07370758 0.74785614
 N   0.95652008 0.11248016 0.75946808
 N   0.90734100 0.06329346 0.75946808
 C   0.92230225 0.12743378 0.77952576
 C   0.89237976 0.09751892 0.77952576
 C   0.97415161 0.04566193 0.72497559
 H   0.86163330 0.09815979 0.79233551
 H   0.92168427 0.15818787 0.79233551
 H   0.96963501 0.05017853 0.69056702
 H   0.00736237 0.05291748 0.73345184
 H   0.96693420 0.01245880 0.73345184
 C   0.52858734 0.19289398 0.82785034
 N   0.50852966 0.20926666 0.86062622
 N   0.50852966 0.16011810 0.81147766
 C   0.97375488 0.18546295 0.86523438
 C   0.97375488 0.15554047 0.83528137
 C   0.56824493 0.20908356 0.81169128
 H   0.95157623 0.13143158 0.82929230
 H   0.95157623 0.19145203 0.88934326
 H   0.56182098 0.23341370 0.78733063
 H   0.58660889 0.22330475 0.83786011
 H   0.58660889 0.18288422 0.79743958
 C   0.74214172 0.44628906 0.57445526
 N   0.75854492 0.45928192 0.61064148
 N   0.75854492 0.41013336 0.56146240
 C   0.78692627 0.42961121 0.62111664
 C   0.78692627 0.39965820 0.59116364
 C   0.70979309 0.46917725 0.55156708
 H   0.80504608 0.37180328 0.58892059
 H   0.80504608 0.43182373 0.64897919
 H   0.67818451 0.45851898 0.56226349
 H   0.71320343 0.50348663 0.55771637
 H   0.71320343 0.46303558 0.51725769
 C   0.57352448 0.44628906 0.74306488
 N   0.56053162 0.41013336 0.75946808
 N   0.60971069 0.45928192 0.75946808
 C   0.59023285 0.39965820 0.78785706
 C   0.62018585 0.42961121 0.78785706
 C   0.55064392 0.46917725 0.71072388
 H   0.64804840 0.43182373 0.80597687
 H   0.58799744 0.37180328 0.80597687
 H   0.56133270 0.45851898 0.67911530
 H   0.51632690 0.46303558 0.71413422
 H   0.55678558 0.50348663 0.71413422
 C   0.82353973 0.19627380 0.52582550
 N   0.81054688 0.16011810 0.50945282
 N   0.85969543 0.20926666 0.50945282
 C   0.84021759 0.14964294 0.98107147
 C   0.87017059 0.17959595 0.98107147
 C   0.80065918 0.21916199 0.55820465
 H   0.89803314 0.18183899 0.96294403
 H   0.83798218 0.12178802 0.96294403
 H   0.77828979 0.24152374 0.54312134
 H   0.78283691 0.19652557 0.57814026
 H   0.82329559 0.23697662 0.57814026
 C   0.51451874 0.20051575 0.69867706
 N   0.50852966 0.20926666 0.65828705
 N   0.50852966 0.16011810 0.70743561
 C   0.99814606 0.17225647 0.64046478
 C   0.99814606 0.14230347 0.67041779
 C   0.52637482 0.23178864 0.72994995
 H   0.99150848 0.10974121 0.66796112
 H   0.99150848 0.16979980 0.60791016
 H   0.56127167 0.23371887 0.73188782
 H   0.51344299 0.26299286 0.72073364
 H   0.51344299 0.22257233 0.76116180
 C   0.77491760 0.44628906 0.94445801
 N   0.75854492 0.45928192 0.90827179
 N   0.75854492 0.41013336 0.95745087
 C   0.73012543 0.42961121 0.89782715
 C   0.73012543 0.39965820 0.92774200
 C   0.80728912 0.46917725 0.96733856
 H   0.71200562 0.37180328 0.92998505
 H   0.71200562 0.43182373 0.86993408
 H   0.83886719 0.45851898 0.95664978
 H   0.80384827 0.50348663 0.96119690
 H   0.80384827 0.46303558 0.00165558
 C   0.69351196 0.19627380 0.99308014
 N   0.70650482 0.16011810 0.50945282
 N   0.65735626 0.20926666 0.50945282
 C   0.67683411 0.14964294 0.53784180
 C   0.64688110 0.17959595 0.53784180
 C   0.71639252 0.21916199 0.96070862
 H   0.61901855 0.18183899 0.55596161
 H   0.67907715 0.12178802 0.55596161
 H   0.73876190 0.24152374 0.97578430
 H   0.73421478 0.19652557 0.94077301
 H   0.69375610 0.23697662 0.94077301
 C   0.94011688 0.44287872 0.77952576
 N   0.95652008 0.41013336 0.75946808
 N   0.90734100 0.45928192 0.75946808
 C   0.93271637 0.40552521 0.72467041
 C   0.90276337 0.43547821 0.72467041
 C   0.95630646 0.45906830 0.81915283
 H   0.87864685 0.44146729 0.70249176
 H   0.93870544 0.38141632 0.70249176
 H   0.94020844 0.44297028 0.84578705
 H   0.99076843 0.45307922 0.82102966
 H   0.95031738 0.49353790 0.82102966
 C   0.77491760 0.07629395 0.57445526
 N   0.75854492 0.11248016 0.56146240
 N   0.75854492 0.06329346 0.61064148
 C   0.73012543 0.12295532 0.59116364
 C   0.73012543 0.09300232 0.62111664
 C   0.80728912 0.05340576 0.55156708
 H   0.71200562 0.09075928 0.64897919
 H   0.71200562 0.15081024 0.58892059
 H   0.79217529 0.03107452 0.52923584
 H   0.82719421 0.07604218 0.53378296
 H   0.82719421 0.03562164 0.57421112
 C   0.00253296 0.32206726 0.82022858
 N   0.50852966 0.36246490 0.81147766
 N   0.50852966 0.31330872 0.86062622
 C   0.51890564 0.38027954 0.84852600
 C   0.51890564 0.35035706 0.87844086
 C   0.99067688 0.29079437 0.78896332
 H   0.52554321 0.35278320 0.91100311
 H   0.52554321 0.41284180 0.85095215
 H   0.95578003 0.28886414 0.78702545
 H   0.00360870 0.30001068 0.75775146
 H   0.00360870 0.25959015 0.79817200
 C   0.57352448 0.07629395 0.77584076
 N   0.56053162 0.11248016 0.75946808
 N   0.60971069 0.06329346 0.75946808
 C   0.59023285 0.12295532 0.73105621
 C   0.62018585 0.09300232 0.73105621
 C   0.55064392 0.05340576 0.80821991
 H   0.64804840 0.09075928 0.71292877
 H   0.58799744 0.15081024 0.71292877
 H   0.56133270 0.06409454 0.83979797
 H   0.51632690 0.05954742 0.80477905
 H   0.55678558 0.01912689 0.80477905
 C   0.82353973 0.32630920 0.99308014
 N   0.81054688 0.36246490 0.50945282
 N   0.85969543 0.31330872 0.50945282
 C   0.84021759 0.37294006 0.53784180
 C   0.87017059 0.34298706 0.53784180
 C   0.80065918 0.30342102 0.96070862
 H   0.89803314 0.34074402 0.55596161
 H   0.83798218 0.40079498 0.55596161
 H   0.77828979 0.28108978 0.97578430
 H   0.78283691 0.32605743 0.94077301
 H   0.82329559 0.28563690 0.94077301
 C   0.74214172 0.07629395 0.94445801
 N   0.75854492 0.06329346 0.90827179
 N   0.75854492 0.11248016 0.95745087
 C   0.78692627 0.09300232 0.89782715
 C   0.78692627 0.12295532 0.92774200
 C   0.70979309 0.05340576 0.96733856
 H   0.80504608 0.15081024 0.92998505
 H   0.80504608 0.09075928 0.86993408
 H   0.67818451 0.06409454 0.95664978
 H   0.71320343 0.01912689 0.96119690
 H   0.71320343 0.05954742 0.00165558
 C   0.98846436 0.32971954 0.69106293
 N   0.50852966 0.31330872 0.65828705
 N   0.50852966 0.36246490 0.70743561
 C   0.54329681 0.33712006 0.65367889
 C   0.54329681 0.36707306 0.68362427
 C   0.94880676 0.31352997 0.70725250
 H   0.56547546 0.39118195 0.68962097
 H   0.56547546 0.33113098 0.62959290
 H   0.92221069 0.32958984 0.69115448
 H   0.94696808 0.27906036 0.70125580
 H   0.94696808 0.31948853 0.74168396
Zn   0.63352203 0.26130676 0.00945282
Zn   0.88353729 0.01129150 0.25946808
Zn   0.63352203 0.01129150 0.25946808
Zn   0.88353729 0.26130676 0.00945282
Zn   0.50852966 0.13628387 0.25946808
Zn   0.75854492 0.38629913 0.00945282
Zn   0.75854492 0.01129150 0.13444519
Zn   0.50852966 0.26130676 0.38446045
Zn   0.75854492 0.13628387 0.00945282
Zn   0.50852966 0.38629913 0.25946808
Zn   0.50852966 0.26130676 0.13444519
Zn   0.75854492 0.01129150 0.38446045
 C   0.82353973 0.49491882 0.19444275
 N   0.81054688 0.01129150 0.15828705
 N   0.85969543 0.01129150 0.20743561
 C   0.84021759 0.03967285 0.14781189
 C   0.87017059 0.03967285 0.17775726
 C   0.80065918 0.46253967 0.21732330
 H   0.89803314 0.05780029 0.18000031
 H   0.83798218 0.05780029 0.11994934
 H   0.77828979 0.47762299 0.23968506
 H   0.78283691 0.44263458 0.19468689
 H   0.82329559 0.44263458 0.23513794
 C   0.57693481 0.24121857 0.44104767
 N   0.56053162 0.26130676 0.40830231
 N   0.60971069 0.26130676 0.45745087
 C   0.58433533 0.29608154 0.40369415
 C   0.61428833 0.29608154 0.43363953
 C   0.56074524 0.20159149 0.45723724
 H   0.63840485 0.31826019 0.43963623
 H   0.57834625 0.31826019 0.37957764
 H   0.53638458 0.20797729 0.48159027
 H   0.54652405 0.18321991 0.43103027
 H   0.58695221 0.18321991 0.47148895
 C   0.69351196 0.02769470 0.19444275
 N   0.70650482 0.01129150 0.15828705
 N   0.65735626 0.01129150 0.20743561
 C   0.67683411 0.48291016 0.14781189
 C   0.64688110 0.48291016 0.17775726
 C   0.71639252 0.06004333 0.21732330
 H   0.61901855 0.46478271 0.18000031
 H   0.67907715 0.46478271 0.11994934
 H   0.73876190 0.04496002 0.23968506
 H   0.73421478 0.07997894 0.19468689
 H   0.69375610 0.07997894 0.23513794
 C   0.94011688 0.24121857 0.44104767
 N   0.95652008 0.26130676 0.40830231
 N   0.90734100 0.26130676 0.45745087
 C   0.93271637 0.29608154 0.40369415
 C   0.90276337 0.29608154 0.43363953
 C   0.95630646 0.20159149 0.45723724
 H   0.87864685 0.31826019 0.43963623
 H   0.93870544 0.31826019 0.37957764
 H   0.94020844 0.17498779 0.44113922
 H   0.99076843 0.19974518 0.45124054
 H   0.95031738 0.19974518 0.49169922
 C   0.56929016 0.25528717 0.07021332
 N   0.56053162 0.26130676 0.11064148
 N   0.60971069 0.26130676 0.06146240
 C   0.59757996 0.27169037 0.12845612
 C   0.62752533 0.27169037 0.09851074
 C   0.53804779 0.24346161 0.03897858
 H   0.66005707 0.27832794 0.10096741
 H   0.60003662 0.27832794 0.16101837
 H   0.53610992 0.20853424 0.03704071
 H   0.00683594 0.25636292 0.04818726
 H   0.54726410 0.25636292 0.50776672
 C   0.82093048 0.02287292 0.32186127
 N   0.81054688 0.01129150 0.36062622
 N   0.85969543 0.01129150 0.31147766
 C   0.84473419 0.49123383 0.37561798
 C   0.87468719 0.49123383 0.34566498
 C   0.79291534 0.04575348 0.29384613
 H   0.90543365 0.47839355 0.34631348
 H   0.84538269 0.47839355 0.40636444
 H   0.77408600 0.02299500 0.27501678
 H   0.77138519 0.06591034 0.31273651
 H   0.81180573 0.06591034 0.27230835
 C   0.94352722 0.27767944 0.07445526
 N   0.95652008 0.26130676 0.11064148
 N   0.90734100 0.26130676 0.06146240
 C   0.92681885 0.23289490 0.12111664
 C   0.89689636 0.23289490 0.09116364
 C   0.96640778 0.31005859 0.05156708
 H   0.86900330 0.21476746 0.08892059
 H   0.92906189 0.21476746 0.14897919
 H   0.95571899 0.34163666 0.06226349
 H   0.00072479 0.30661774 0.05771637
 H   0.96026611 0.30661774 0.01728821
 C   0.69351196 0.49491882 0.32447052
 N   0.70650482 0.01129150 0.36062622
 N   0.65735626 0.01129150 0.31147766
 C   0.67683411 0.03967285 0.37110138
 C   0.64688110 0.03967285 0.34114838
 C   0.71639252 0.46253967 0.30158234
 H   0.61901855 0.05780029 0.33890533
 H   0.67907715 0.05780029 0.39896393
 H   0.73876190 0.47762299 0.27925110
 H   0.73421478 0.44263458 0.32422638
 H   0.69375610 0.44263458 0.28379822
 C   0.69612122 0.32369232 0.02103424
 N   0.70650482 0.36246490 0.00945282
 N   0.65735626 0.31330872 0.00945282
 C   0.67231750 0.37744904 0.48939514
 C   0.64236450 0.34750366 0.48939514
 C   0.72413635 0.29567719 0.04392242
 H   0.61161804 0.34814453 0.47655487
 H   0.67166901 0.40820312 0.47655487
 H   0.74296570 0.27684784 0.02115631
 H   0.74567413 0.31457520 0.06407166
 H   0.70524597 0.27414703 0.06407166
 C   0.94613647 0.07370758 0.24788666
 N   0.95652008 0.11248016 0.25946808
 N   0.90734100 0.06329346 0.25946808
 C   0.92230225 0.12743378 0.27952576
 C   0.89237976 0.09751892 0.27952576
 C   0.97415161 0.04566193 0.22500610
 H   0.86163330 0.09815979 0.29233551
 H   0.92168427 0.15818787 0.29233551
 H   0.96963501 0.05017853 0.19056702
 H   0.00736237 0.05291748 0.23345184
 H   0.96693420 0.01245880 0.23345184
 C   0.52858734 0.19289398 0.32788086
 N   0.50852966 0.20926666 0.36062622
 N   0.50852966 0.16011810 0.31147766
 C   0.97375488 0.18546295 0.36523438
 C   0.97375488 0.15554047 0.33528137
 C   0.56824493 0.20908356 0.31169128
 H   0.95157623 0.13143158 0.32929230
 H   0.95157623 0.19145203 0.38934326
 H   0.56182098 0.23341370 0.28733063
 H   0.58660889 0.22330475 0.33789062
 H   0.58660889 0.18288422 0.29743958
 C   0.74214172 0.44628906 0.07445526
 N   0.75854492 0.45928192 0.11064148
 N   0.75854492 0.41013336 0.06146240
 C   0.78692627 0.42961121 0.12111664
 C   0.78692627 0.39965820 0.09116364
 C   0.70979309 0.46917725 0.05156708
 H   0.80504608 0.37180328 0.08892059
 H   0.80504608 0.43182373 0.14897919
 H   0.67818451 0.45851898 0.06226349
 H   0.71320343 0.50348663 0.05771637
 H   0.71320343 0.46303558 0.01728821
 C   0.57352448 0.44628906 0.24306488
 N   0.56053162 0.41013336 0.25946808
 N   0.60971069 0.45928192 0.25946808
 C   0.59023285 0.39965820 0.28785706
 C   0.62018585 0.42961121 0.28785706
 C   0.55064392 0.46917725 0.21072388
 H   0.64804840 0.43182373 0.30597687
 H   0.58799744 0.37180328 0.30597687
 H   0.56133270 0.45851898 0.17911530
 H   0.51632690 0.46303558 0.21413422
 H   0.55678558 0.50348663 0.21413422
 C   0.82353973 0.19627380 0.02585602
 N   0.81054688 0.16011810 0.00945282
 N   0.85969543 0.20926666 0.00945282
 C   0.84021759 0.14964294 0.48107147
 C   0.87017059 0.17959595 0.48107147
 C   0.80065918 0.21916199 0.05820465
 H   0.89803314 0.18183899 0.46295166
 H   0.83798218 0.12178802 0.46295166
 H   0.77828979 0.24152374 0.04312134
 H   0.78283691 0.19652557 0.07814026
 H   0.82329559 0.23697662 0.07814026
 C   0.51451874 0.20051575 0.19867706
 N   0.50852966 0.20926666 0.15828705
 N   0.50852966 0.16011810 0.20743561
 C   0.99814606 0.17225647 0.14046478
 C   0.99814606 0.14230347 0.17041779
 C   0.52637482 0.23178864 0.22994995
 H   0.99150848 0.10974121 0.16796112
 H   0.99150848 0.16979980 0.10791016
 H   0.56127167 0.23371887 0.23188782
 H   0.51344299 0.26299286 0.22073364
 H   0.51344299 0.22257233 0.26116180
 C   0.77491760 0.44628906 0.44445801
 N   0.75854492 0.45928192 0.40830231
 N   0.75854492 0.41013336 0.45745087
 C   0.73012543 0.42961121 0.39782715
 C   0.73012543 0.39965820 0.42777252
 C   0.80728912 0.46917725 0.46733856
 H   0.71200562 0.37180328 0.42998505
 H   0.71200562 0.43182373 0.36996460
 H   0.83886719 0.45851898 0.45668030
 H   0.80384827 0.50348663 0.46119690
 H   0.80384827 0.46303558 0.50165558
 C   0.69351196 0.19627380 0.49308014
 N   0.70650482 0.16011810 0.00945282
 N   0.65735626 0.20926666 0.00945282
 C   0.67683411 0.14964294 0.03784180
 C   0.64688110 0.17959595 0.03784180
 C   0.71639252 0.21916199 0.46070862
 H   0.61901855 0.18183899 0.05596161
 H   0.67907715 0.12178802 0.05596161
 H   0.73876190 0.24152374 0.47578430
 H   0.73421478 0.19652557 0.44080353
 H   0.69375610 0.23697662 0.44080353
 C   0.94011688 0.44287872 0.27952576
 N   0.95652008 0.41013336 0.25946808
 N   0.90734100 0.45928192 0.25946808
 C   0.93271637 0.40552521 0.22470093
 C   0.90276337 0.43547821 0.22470093
 C   0.95630646 0.45906830 0.31915283
 H   0.87864685 0.44146729 0.20249176
 H   0.93870544 0.38141632 0.20249176
 H   0.94020844 0.44297028 0.34578705
 H   0.99076843 0.45307922 0.32102966
 H   0.95031738 0.49353790 0.32102966
 C   0.77491760 0.07629395 0.07445526
 N   0.75854492 0.11248016 0.06146240
 N   0.75854492 0.06329346 0.11064148
 C   0.73012543 0.12295532 0.09116364
 C   0.73012543 0.09300232 0.12111664
 C   0.80728912 0.05340576 0.05156708
 H   0.71200562 0.09075928 0.14897919
 H   0.71200562 0.15081024 0.08892059
 H   0.79217529 0.03107452 0.02923584
 H   0.82719421 0.07604218 0.03378296
 H   0.82719421 0.03562164 0.07421112
 C   0.00253296 0.32206726 0.32022858
 N   0.50852966 0.36246490 0.31147766
 N   0.50852966 0.31330872 0.36062622
 C   0.51890564 0.38027954 0.34852600
 C   0.51890564 0.35035706 0.37844086
 C   0.99067688 0.29079437 0.28896332
 H   0.52554321 0.35278320 0.41100311
 H   0.52554321 0.41284180 0.35095215
 H   0.95578003 0.28886414 0.28702545
 H   0.00360870 0.30001068 0.25775146
 H   0.00360870 0.25959015 0.29817200
 C   0.57352448 0.07629395 0.27584076
 N   0.56053162 0.11248016 0.25946808
 N   0.60971069 0.06329346 0.25946808
 C   0.59023285 0.12295532 0.23105621
 C   0.62018585 0.09300232 0.23105621
 C   0.55064392 0.05340576 0.30821991
 H   0.64804840 0.09075928 0.21292877
 H   0.58799744 0.15081024 0.21292877
 H   0.56133270 0.06409454 0.33979797
 H   0.51632690 0.05954742 0.30477905
 H   0.55678558 0.01912689 0.30477905
 C   0.82353973 0.32630920 0.49308014
 N   0.81054688 0.36246490 0.00945282
 N   0.85969543 0.31330872 0.00945282
 C   0.84021759 0.37294006 0.03784180
 C   0.87017059 0.34298706 0.03784180
 C   0.80065918 0.30342102 0.46070862
 H   0.89803314 0.34074402 0.05596161
 H   0.83798218 0.40079498 0.05596161
 H   0.77828979 0.28108978 0.47578430
 H   0.78283691 0.32605743 0.44080353
 H   0.82329559 0.28563690 0.44080353
 C   0.74214172 0.07629395 0.44445801
 N   0.75854492 0.06329346 0.40830231
 N   0.75854492 0.11248016 0.45745087
 C   0.78692627 0.09300232 0.39782715
 C   0.78692627 0.12295532 0.42777252
 C   0.70979309 0.05340576 0.46733856
 H   0.80504608 0.15081024 0.42998505
 H   0.80504608 0.09075928 0.36996460
 H   0.67818451 0.06409454 0.45668030
 H   0.71320343 0.01912689 0.46119690
 H   0.71320343 0.05954742 0.50165558
 C   0.98846436 0.32971954 0.19106293
 N   0.50852966 0.31330872 0.15828705
 N   0.50852966 0.36246490 0.20743561
 C   0.54329681 0.33712006 0.15370941
 C   0.54329681 0.36707306 0.18362427
 C   0.94880676 0.31352997 0.20725250
 H   0.56547546 0.39118195 0.18962097
 H   0.56547546 0.33113098 0.12959290
 H   0.92221069 0.32958984 0.19115448
 H   0.94696808 0.27906036 0.20125580
 H   0.94696808 0.31948853 0.24168396
Zn   0.13352203 0.76130676 0.50945282
Zn   0.38353729 0.51129150 0.75946808
Zn   0.13352203 0.51129150 0.75946808
Zn   0.38353729 0.76130676 0.50945282
Zn   0.00852966 0.63628387 0.75946808
Zn   0.25854492 0.88629913 0.50945282
Zn   0.25854492 0.51129150 0.63444519
Zn   0.00852966 0.76130676 0.88446045
Zn   0.25854492 0.63628387 0.50945282
Zn   0.00852966 0.88629913 0.75946808
Zn   0.00852966 0.76130676 0.63444519
Zn   0.25854492 0.51129150 0.88446045
 C   0.32353973 0.99491882 0.69444275
 N   0.31054688 0.51129150 0.65828705
 N   0.35969543 0.51129150 0.70743561
 C   0.34021759 0.53967285 0.64781189
 C   0.37017059 0.53967285 0.67775726
 C   0.30065918 0.96253967 0.71732330
 H   0.39803314 0.55780029 0.68000031
 H   0.33798218 0.55780029 0.61994934
 H   0.27832031 0.97762299 0.73968506
 H   0.28286743 0.94260406 0.69468689
 H   0.32329559 0.94260406 0.73513794
 C   0.07693481 0.74121857 0.94104767
 N   0.06053162 0.76130676 0.90827179
 N   0.10971069 0.76130676 0.95745087
 C   0.08433533 0.79608154 0.90369415
 C   0.11428833 0.79608154 0.93363953
 C   0.06074524 0.70159149 0.95723724
 H   0.13840485 0.81826019 0.93963623
 H   0.07834625 0.81826019 0.87957764
 H   0.03641510 0.70797729 0.98159027
 H   0.04652405 0.68321991 0.93103027
 H   0.08695221 0.68321991 0.97148895
 C   0.19351196 0.52766418 0.69444275
 N   0.20650482 0.51129150 0.65828705
 N   0.15735626 0.51129150 0.70743561
 C   0.17683411 0.98291016 0.64781189
 C   0.14688110 0.98291016 0.67775726
 C   0.21639252 0.56004333 0.71732330
 H   0.11901855 0.96478271 0.68000031
 H   0.17907715 0.96478271 0.61994934
 H   0.23876190 0.54496002 0.73968506
 H   0.23421478 0.57997894 0.69468689
 H   0.19375610 0.57997894 0.73513794
 C   0.44011688 0.74121857 0.94104767
 N   0.45652008 0.76130676 0.90827179
 N   0.40737152 0.76130676 0.95745087
 C   0.43271637 0.79608154 0.90369415
 C   0.40276337 0.79608154 0.93363953
 C   0.45630646 0.70159149 0.95723724
 H   0.37864685 0.81826019 0.93963623
 H   0.43870544 0.81826019 0.87957764
 H   0.44020844 0.67495728 0.94113922
 H   0.49076843 0.69974518 0.95124054
 H   0.45031738 0.69974518 0.99169922
 C   0.06929016 0.75528717 0.57021332
 N   0.06053162 0.76130676 0.61064148
 N   0.10971069 0.76130676 0.56146240
 C   0.09757996 0.77169037 0.62845612
 C   0.12752533 0.77169037 0.59851074
 C   0.03804779 0.74346161 0.53897858
 H   0.16008759 0.77832794 0.60096741
 H   0.10003662 0.77832794 0.66098785
 H   0.03610992 0.70853424 0.53704071
 H   0.50683594 0.75636292 0.54818726
 H   0.04726410 0.75636292 0.00776672
 C   0.32093048 0.52287292 0.82186127
 N   0.31054688 0.51129150 0.86062622
 N   0.35969543 0.51129150 0.81147766
 C   0.34473419 0.99123383 0.87561798
 C   0.37468719 0.99123383 0.84566498
 C   0.29291534 0.54575348 0.79384613
 H   0.40543365 0.97839355 0.84631348
 H   0.34538269 0.97839355 0.90636444
 H   0.27408600 0.52299500 0.77501678
 H   0.27138519 0.56591034 0.81273651
 H   0.31180573 0.56591034 0.77230835
 C   0.44352722 0.77767944 0.57445526
 N   0.45652008 0.76130676 0.61064148
 N   0.40737152 0.76130676 0.56146240
 C   0.42684937 0.73289490 0.62111664
 C   0.39689636 0.73289490 0.59116364
 C   0.46640778 0.81005859 0.55156708
 H   0.36903381 0.71476746 0.58892059
 H   0.42906189 0.71476746 0.64897919
 H   0.45574951 0.84163666 0.56226349
 H   0.50072479 0.80661774 0.55771637
 H   0.46026611 0.80661774 0.51725769
 C   0.19351196 0.99491882 0.82447052
 N   0.20650482 0.51129150 0.86062622
 N   0.15735626 0.51129150 0.81147766
 C   0.17683411 0.53967285 0.87110138
 C   0.14688110 0.53967285 0.84114838
 C   0.21639252 0.96253967 0.80158234
 H   0.11901855 0.55780029 0.83890533
 H   0.17907715 0.55780029 0.89896393
 H   0.23876190 0.97762299 0.77922058
 H   0.23421478 0.94260406 0.82422638
 H   0.19375610 0.94260406 0.78376770
 C   0.19612122 0.82369232 0.52103424
 N   0.20650482 0.86246490 0.50945282
 N   0.15735626 0.81330872 0.50945282
 C   0.17231750 0.87744904 0.98939514
 C   0.14236450 0.84750366 0.98939514
 C   0.22416687 0.79567719 0.54392242
 H   0.11161804 0.84814453 0.97655487
 H   0.17166901 0.90820312 0.97655487
 H   0.24296570 0.77684784 0.52115631
 H   0.24567413 0.81457520 0.56407166
 H   0.20524597 0.77414703 0.56407166
 C   0.44613647 0.57370758 0.74785614
 N   0.45652008 0.61248016 0.75946808
 N   0.40737152 0.56329346 0.75946808
 C   0.42233276 0.62743378 0.77952576
 C   0.39237976 0.59751892 0.77952576
 C   0.47415161 0.54566193 0.72497559
 H   0.36163330 0.59812927 0.79233551
 H   0.42168427 0.65818787 0.79233551
 H   0.46963501 0.55017853 0.69056702
 H   0.50736237 0.55291748 0.73345184
 H   0.46693420 0.51245880 0.73345184
 C   0.02858734 0.69289398 0.82785034
 N   0.00852966 0.70926666 0.86062622
 N   0.00852966 0.66011810 0.81147766
 C   0.47375488 0.68546295 0.86523438
 C   0.47375488 0.65550995 0.83528137
 C   0.06824493 0.70908356 0.81169128
 H   0.45157623 0.63143158 0.82929230
 H   0.45157623 0.69145203 0.88934326
 H   0.06182098 0.73341370 0.78733063
 H   0.08660889 0.72330475 0.83786011
 H   0.08660889 0.68288422 0.79743958
 C   0.24214172 0.94628906 0.57445526
 N   0.25854492 0.95928192 0.61064148
 N   0.25854492 0.91010284 0.56146240
 C   0.28692627 0.92958069 0.62111664
 C   0.28692627 0.89965820 0.59116364
 C   0.20979309 0.96917725 0.55156708
 H   0.30504608 0.87177277 0.58892059
 H   0.30504608 0.93182373 0.64897919
 H   0.17818451 0.95848846 0.56226349
 H   0.21320343 0.00348663 0.55771637
 H   0.21320343 0.96303558 0.51725769
 C   0.07352448 0.94628906 0.74306488
 N   0.06053162 0.91010284 0.75946808
 N   0.10971069 0.95928192 0.75946808
 C   0.09023285 0.89965820 0.78785706
 C   0.12018585 0.92958069 0.78785706
 C   0.05064392 0.96917725 0.71072388
 H   0.14804840 0.93182373 0.80597687
 H   0.08799744 0.87177277 0.80597687
 H   0.06133270 0.95848846 0.67911530
 H   0.01635742 0.96303558 0.71413422
 H   0.05678558 0.00348663 0.71413422
 C   0.32353973 0.69627380 0.52582550
 N   0.31054688 0.66011810 0.50945282
 N   0.35969543 0.70926666 0.50945282
 C   0.34021759 0.64964294 0.98107147
 C   0.37017059 0.67959595 0.98107147
 C   0.30065918 0.71916199 0.55820465
 H   0.39803314 0.68183899 0.96294403
 H   0.33798218 0.62178802 0.96294403
 H   0.27832031 0.74152374 0.54312134
 H   0.28286743 0.69652557 0.57814026
 H   0.32329559 0.73697662 0.57814026
 C   0.01451874 0.70051575 0.69867706
 N   0.00852966 0.70926666 0.65828705
 N   0.00852966 0.66011810 0.70743561
 C   0.49814606 0.67225647 0.64046478
 C   0.49814606 0.64230347 0.67041779
 C   0.02637482 0.73178864 0.72994995
 H   0.49150848 0.60974121 0.66796112
 H   0.49150848 0.66979980 0.60791016
 H   0.06127167 0.73371887 0.73188782
 H   0.01344299 0.76299286 0.72073364
 H   0.01344299 0.72257233 0.76116180
 C   0.27491760 0.94628906 0.94445801
 N   0.25854492 0.95928192 0.90827179
 N   0.25854492 0.91010284 0.95745087
 C   0.23012543 0.92958069 0.89782715
 C   0.23012543 0.89965820 0.92774200
 C   0.30728912 0.96917725 0.96733856
 H   0.21200562 0.87177277 0.92998505
 H   0.21200562 0.93182373 0.86993408
 H   0.33886719 0.95848846 0.95664978
 H   0.30384827 0.00348663 0.96119690
 H   0.30384827 0.96303558 0.00165558
 C   0.19351196 0.69627380 0.99308014
 N   0.20650482 0.66011810 0.50945282
 N   0.15735626 0.70926666 0.50945282
 C   0.17683411 0.64964294 0.53784180
 C   0.14688110 0.67959595 0.53784180
 C   0.21639252 0.71916199 0.96070862
 H   0.11901855 0.68183899 0.55596161
 H   0.17907715 0.62178802 0.55596161
 H   0.23876190 0.74152374 0.97578430
 H   0.23421478 0.69652557 0.94077301
 H   0.19375610 0.73697662 0.94077301
 C   0.44011688 0.94287872 0.77952576
 N   0.45652008 0.91010284 0.75946808
 N   0.40737152 0.95928192 0.75946808
 C   0.43271637 0.90552521 0.72467041
 C   0.40276337 0.93547821 0.72467041
 C   0.45630646 0.95906830 0.81915283
 H   0.37864685 0.94146729 0.70249176
 H   0.43870544 0.88141632 0.70249176
 H   0.44020844 0.94297028 0.84578705
 H   0.49076843 0.95307922 0.82102966
 H   0.45031738 0.99353790 0.82102966
 C   0.27491760 0.57629395 0.57445526
 N   0.25854492 0.61248016 0.56146240
 N   0.25854492 0.56329346 0.61064148
 C   0.23012543 0.62295532 0.59116364
 C   0.23012543 0.59300232 0.62111664
 C   0.30728912 0.55340576 0.55156708
 H   0.21200562 0.59075928 0.64897919
 H   0.21200562 0.65081024 0.58892059
 H   0.29217529 0.53107452 0.52923584
 H   0.32719421 0.57604218 0.53378296
 H   0.32719421 0.53562164 0.57421112
 C   0.50253296 0.82206726 0.82022858
 N   0.00852966 0.86246490 0.81147766
 N   0.00852966 0.81330872 0.86062622
 C   0.01893616 0.88027954 0.84852600
 C   0.01893616 0.85035706 0.87844086
 C   0.49067688 0.79079437 0.78896332
 H   0.02554321 0.85278320 0.91100311
 H   0.02554321 0.91284180 0.85095215
 H   0.45578003 0.78886414 0.78702545
 H   0.50360870 0.80001068 0.75775146
 H   0.50360870 0.75959015 0.79817200
 C   0.07352448 0.57629395 0.77584076
 N   0.06053162 0.61248016 0.75946808
 N   0.10971069 0.56329346 0.75946808
 C   0.09023285 0.62295532 0.73105621
 C   0.12018585 0.59300232 0.73105621
 C   0.05064392 0.55340576 0.80821991
 H   0.14804840 0.59075928 0.71292877
 H   0.08799744 0.65081024 0.71292877
 H   0.06133270 0.56409454 0.83979797
 H   0.01635742 0.55954742 0.80477905
 H   0.05678558 0.51909637 0.80477905
 C   0.32353973 0.82630920 0.99308014
 N   0.31054688 0.86246490 0.50945282
 N   0.35969543 0.81330872 0.50945282
 C   0.34021759 0.87294006 0.53784180
 C   0.37017059 0.84298706 0.53784180
 C   0.30065918 0.80342102 0.96070862
 H   0.39803314 0.84074402 0.55596161
 H   0.33798218 0.90079498 0.55596161
 H   0.27832031 0.78105927 0.97578430
 H   0.28286743 0.82605743 0.94077301
 H   0.32329559 0.78560638 0.94077301
 C   0.24214172 0.57629395 0.94445801
 N   0.25854492 0.56329346 0.90827179
 N   0.25854492 0.61248016 0.95745087
 C   0.28692627 0.59300232 0.89782715
 C   0.28692627 0.62295532 0.92774200
 C   0.20979309 0.55340576 0.96733856
 H   0.30504608 0.65081024 0.92998505
 H   0.30504608 0.59075928 0.86993408
 H   0.17818451 0.56409454 0.95664978
 H   0.21320343 0.51909637 0.96119690
 H   0.21320343 0.55954742 0.00165558
 C   0.48846436 0.82968903 0.69106293
 N   0.00852966 0.81330872 0.65828705
 N   0.00852966 0.86246490 0.70743561
 C   0.04329681 0.83712006 0.65367889
 C   0.04329681 0.86707306 0.68362427
 C   0.44883728 0.81352997 0.70725250
 H   0.06550598 0.89118195 0.68962097
 H   0.06550598 0.83113098 0.62959290
 H   0.42221069 0.82958984 0.69115448
 H   0.44696808 0.77906036 0.70125580
 H   0.44696808 0.81948853 0.74168396
Zn   0.13352203 0.76130676 0.00945282
Zn   0.38353729 0.51129150 0.25946808
Zn   0.13352203 0.51129150 0.25946808
Zn   0.38353729 0.76130676 0.00945282
Zn   0.00852966 0.63628387 0.25946808
Zn   0.25854492 0.88629913 0.00945282
Zn   0.25854492 0.51129150 0.13444519
Zn   0.00852966 0.76130676 0.38446045
Zn   0.25854492 0.63628387 0.00945282
Zn   0.00852966 0.88629913 0.25946808
Zn   0.00852966 0.76130676 0.13444519
Zn   0.25854492 0.51129150 0.38446045
 C   0.32353973 0.99491882 0.19444275
 N   0.31054688 0.51129150 0.15828705
 N   0.35969543 0.51129150 0.20743561
 C   0.34021759 0.53967285 0.14781189
 C   0.37017059 0.53967285 0.17775726
 C   0.30065918 0.96253967 0.21732330
 H   0.39803314 0.55780029 0.18000031
 H   0.33798218 0.55780029 0.11994934
 H   0.27832031 0.97762299 0.23968506
 H   0.28286743 0.94260406 0.19468689
 H   0.32329559 0.94260406 0.23513794
 C   0.07693481 0.74121857 0.44104767
 N   0.06053162 0.76130676 0.40830231
 N   0.10971069 0.76130676 0.45745087
 C   0.08433533 0.79608154 0.40369415
 C   0.11428833 0.79608154 0.43363953
 C   0.06074524 0.70159149 0.45723724
 H   0.13840485 0.81826019 0.43963623
 H   0.07834625 0.81826019 0.37957764
 H   0.03641510 0.70797729 0.48159027
 H   0.04652405 0.68321991 0.43103027
 H   0.08695221 0.68321991 0.47148895
 C   0.19351196 0.52766418 0.19444275
 N   0.20650482 0.51129150 0.15828705
 N   0.15735626 0.51129150 0.20743561
 C   0.17683411 0.98291016 0.14781189
 C   0.14688110 0.98291016 0.17775726
 C   0.21639252 0.56004333 0.21732330
 H   0.11901855 0.96478271 0.18000031
 H   0.17907715 0.96478271 0.11994934
 H   0.23876190 0.54496002 0.23968506
 H   0.23421478 0.57997894 0.19468689
 H   0.19375610 0.57997894 0.23513794
 C   0.44011688 0.74121857 0.44104767
 N   0.45652008 0.76130676 0.40830231
 N   0.40737152 0.76130676 0.45745087
 C   0.43271637 0.79608154 0.40369415
 C   0.40276337 0.79608154 0.43363953
 C   0.45630646 0.70159149 0.45723724
 H   0.37864685 0.81826019 0.43963623
 H   0.43870544 0.81826019 0.37957764
 H   0.44020844 0.67495728 0.44113922
 H   0.49076843 0.69974518 0.45124054
 H   0.45031738 0.69974518 0.49169922
 C   0.06929016 0.75528717 0.07021332
 N   0.06053162 0.76130676 0.11064148
 N   0.10971069 0.76130676 0.06146240
 C   0.09757996 0.77169037 0.12845612
 C   0.12752533 0.77169037 0.09851074
 C   0.03804779 0.74346161 0.03897858
 H   0.16008759 0.77832794 0.10096741
 H   0.10003662 0.77832794 0.16101837
 H   0.03610992 0.70853424 0.03704071
 H   0.50683594 0.75636292 0.04818726
 H   0.04726410 0.75636292 0.50776672
 C   0.32093048 0.52287292 0.32186127
 N   0.31054688 0.51129150 0.36062622
 N   0.35969543 0.51129150 0.31147766
 C   0.34473419 0.99123383 0.37561798
 C   0.37468719 0.99123383 0.34566498
 C   0.29291534 0.54575348 0.29384613
 H   0.40543365 0.97839355 0.34631348
 H   0.34538269 0.97839355 0.40636444
 H   0.27408600 0.52299500 0.27501678
 H   0.27138519 0.56591034 0.31273651
 H   0.31180573 0.56591034 0.27230835
 C   0.44352722 0.77767944 0.07445526
 N   0.45652008 0.76130676 0.11064148
 N   0.40737152 0.76130676 0.06146240
 C   0.42684937 0.73289490 0.12111664
 C   0.39689636 0.73289490 0.09116364
 C   0.46640778 0.81005859 0.05156708
 H   0.36903381 0.71476746 0.08892059
 H   0.42906189 0.71476746 0.14897919
 H   0.45574951 0.84163666 0.06226349
 H   0.50072479 0.80661774 0.05771637
 H   0.46026611 0.80661774 0.01728821
 C   0.19351196 0.99491882 0.32447052
 N   0.20650482 0.51129150 0.36062622
 N   0.15735626 0.51129150 0.31147766
 C   0.17683411 0.53967285 0.37110138
 C   0.14688110 0.53967285 0.34114838
 C   0.21639252 0.96253967 0.30158234
 H   0.11901855 0.55780029 0.33890533
 H   0.17907715 0.55780029 0.39896393
 H   0.23876190 0.97762299 0.27925110
 H   0.23421478 0.94260406 0.32422638
 H   0.19375610 0.94260406 0.28379822
 C   0.19612122 0.82369232 0.02103424
 N   0.20650482 0.86246490 0.00945282
 N   0.15735626 0.81330872 0.00945282
 C   0.17231750 0.87744904 0.48939514
 C   0.14236450 0.84750366 0.48939514
 C   0.22416687 0.79567719 0.04392242
 H   0.11161804 0.84814453 0.47655487
 H   0.17166901 0.90820312 0.47655487
 H   0.24296570 0.77684784 0.02115631
 H   0.24567413 0.81457520 0.06407166
 H   0.20524597 0.77414703 0.06407166
 C   0.44613647 0.57370758 0.24788666
 N   0.45652008 0.61248016 0.25946808
 N   0.40737152 0.56329346 0.25946808
 C   0.42233276 0.62743378 0.27952576
 C   0.39237976 0.59751892 0.27952576
 C   0.47415161 0.54566193 0.22500610
 H   0.36163330 0.59812927 0.29233551
 H   0.42168427 0.65818787 0.29233551
 H   0.46963501 0.55017853 0.19056702
 H   0.50736237 0.55291748 0.23345184
 H   0.46693420 0.51245880 0.23345184
 C   0.02858734 0.69289398 0.32788086
 N   0.00852966 0.70926666 0.36062622
 N   0.00852966 0.66011810 0.31147766
 C   0.47375488 0.68546295 0.36523438
 C   0.47375488 0.65550995 0.33528137
 C   0.06824493 0.70908356 0.31169128
 H   0.45157623 0.63143158 0.32929230
 H   0.45157623 0.69145203 0.38934326
 H   0.06182098 0.73341370 0.28733063
 H   0.08660889 0.72330475 0.33789062
 H   0.08660889 0.68288422 0.29743958
 C   0.24214172 0.94628906 0.07445526
 N   0.25854492 0.95928192 0.11064148
 N   0.25854492 0.91010284 0.06146240
 C   0.28692627 0.92958069 0.12111664
 C   0.28692627 0.89965820 0.09116364
 C   0.20979309 0.96917725 0.05156708
 H   0.30504608 0.87177277 0.08892059
 H   0.30504608 0.93182373 0.14897919
 H   0.17818451 0.95848846 0.06226349
 H   0.21320343 0.00348663 0.05771637
 H   0.21320343 0.96303558 0.01728821
 C   0.07352448 0.94628906 0.24306488
 N   0.06053162 0.91010284 0.25946808
 N   0.10971069 0.95928192 0.25946808
 C   0.09023285 0.89965820 0.28785706
 C   0.12018585 0.92958069 0.28785706
 C   0.05064392 0.96917725 0.21072388
 H   0.14804840 0.93182373 0.30597687
 H   0.08799744 0.87177277 0.30597687
 H   0.06133270 0.95848846 0.17911530
 H   0.01635742 0.96303558 0.21413422
 H   0.05678558 0.00348663 0.21413422
 C   0.32353973 0.69627380 0.02585602
 N   0.31054688 0.66011810 0.00945282
 N   0.35969543 0.70926666 0.00945282
 C   0.34021759 0.64964294 0.48107147
 C   0.37017059 0.67959595 0.48107147
 C   0.30065918 0.71916199 0.05820465
 H   0.39803314 0.68183899 0.46295166
 H   0.33798218 0.62178802 0.46295166
 H   0.27832031 0.74152374 0.04312134
 H   0.28286743 0.69652557 0.07814026
 H   0.32329559 0.73697662 0.07814026
 C   0.01451874 0.70051575 0.19867706
 N   0.00852966 0.70926666 0.15828705
 N   0.00852966 0.66011810 0.20743561
 C   0.49814606 0.67225647 0.14046478
 C   0.49814606 0.64230347 0.17041779
 C   0.02637482 0.73178864 0.22994995
 H   0.49150848 0.60974121 0.16796112
 H   0.49150848 0.66979980 0.10791016
 H   0.06127167 0.73371887 0.23188782
 H   0.01344299 0.76299286 0.22073364
 H   0.01344299 0.72257233 0.26116180
 C   0.27491760 0.94628906 0.44445801
 N   0.25854492 0.95928192 0.40830231
 N   0.25854492 0.91010284 0.45745087
 C   0.23012543 0.92958069 0.39782715
 C   0.23012543 0.89965820 0.42777252
 C   0.30728912 0.96917725 0.46733856
 H   0.21200562 0.87177277 0.42998505
 H   0.21200562 0.93182373 0.36996460
 H   0.33886719 0.95848846 0.45668030
 H   0.30384827 0.00348663 0.46119690
 H   0.30384827 0.96303558 0.50165558
 C   0.19351196 0.69627380 0.49308014
 N   0.20650482 0.66011810 0.00945282
 N   0.15735626 0.70926666 0.00945282
 C   0.17683411 0.64964294 0.03784180
 C   0.14688110 0.67959595 0.03784180
 C   0.21639252 0.71916199 0.46070862
 H   0.11901855 0.68183899 0.05596161
 H   0.17907715 0.62178802 0.05596161
 H   0.23876190 0.74152374 0.47578430
 H   0.23421478 0.69652557 0.44080353
 H   0.19375610 0.73697662 0.44080353
 C   0.44011688 0.94287872 0.27952576
 N   0.45652008 0.91010284 0.25946808
 N   0.40737152 0.95928192 0.25946808
 C   0.43271637 0.90552521 0.22470093
 C   0.40276337 0.93547821 0.22470093
 C   0.45630646 0.95906830 0.31915283
 H   0.37864685 0.94146729 0.20249176
 H   0.43870544 0.88141632 0.20249176
 H   0.44020844 0.94297028 0.34578705
 H   0.49076843 0.95307922 0.32102966
 H   0.45031738 0.99353790 0.32102966
 C   0.27491760 0.57629395 0.07445526
 N   0.25854492 0.61248016 0.06146240
 N   0.25854492 0.56329346 0.11064148
 C   0.23012543 0.62295532 0.09116364
 C   0.23012543 0.59300232 0.12111664
 C   0.30728912 0.55340576 0.05156708
 H   0.21200562 0.59075928 0.14897919
 H   0.21200562 0.65081024 0.08892059
 H   0.29217529 0.53107452 0.02923584
 H   0.32719421 0.57604218 0.03378296
 H   0.32719421 0.53562164 0.07421112
 C   0.50253296 0.82206726 0.32022858
 N   0.00852966 0.86246490 0.31147766
 N   0.00852966 0.81330872 0.36062622
 C   0.01893616 0.88027954 0.34852600
 C   0.01893616 0.85035706 0.37844086
 C   0.49067688 0.79079437 0.28896332
 H   0.02554321 0.85278320 0.41100311
 H   0.02554321 0.91284180 0.35095215
 H   0.45578003 0.78886414 0.28702545
 H   0.50360870 0.80001068 0.25775146
 H   0.50360870 0.75959015 0.29817200
 C   0.07352448 0.57629395 0.27584076
 N   0.06053162 0.61248016 0.25946808
 N   0.10971069 0.56329346 0.25946808
 C   0.09023285 0.62295532 0.23105621
 C   0.12018585 0.59300232 0.23105621
 C   0.05064392 0.55340576 0.30821991
 H   0.14804840 0.59075928 0.21292877
 H   0.08799744 0.65081024 0.21292877
 H   0.06133270 0.56409454 0.33979797
 H   0.01635742 0.55954742 0.30477905
 H   0.05678558 0.51909637 0.30477905
 C   0.32353973 0.82630920 0.49308014
 N   0.31054688 0.86246490 0.00945282
 N   0.35969543 0.81330872 0.00945282
 C   0.34021759 0.87294006 0.03784180
 C   0.37017059 0.84298706 0.03784180
 C   0.30065918 0.80342102 0.46070862
 H   0.39803314 0.84074402 0.05596161
 H   0.33798218 0.90079498 0.05596161
 H   0.27832031 0.78105927 0.47578430
 H   0.28286743 0.82605743 0.44080353
 H   0.32329559 0.78560638 0.44080353
 C   0.24214172 0.57629395 0.44445801
 N   0.25854492 0.56329346 0.40830231
 N   0.25854492 0.61248016 0.45745087
 C   0.28692627 0.59300232 0.39782715
 C   0.28692627 0.62295532 0.42777252
 C   0.20979309 0.55340576 0.46733856
 H   0.30504608 0.65081024 0.42998505
 H   0.30504608 0.59075928 0.36996460
 H   0.17818451 0.56409454 0.45668030
 H   0.21320343 0.51909637 0.46119690
 H   0.21320343 0.55954742 0.50165558
 C   0.48846436 0.82968903 0.19106293
 N   0.00852966 0.81330872 0.15828705
 N   0.00852966 0.86246490 0.20743561
 C   0.04329681 0.83712006 0.15370941
 C   0.04329681 0.86707306 0.18362427
 C   0.44883728 0.81352997 0.20725250
 H   0.06550598 0.89118195 0.18962097
 H   0.06550598 0.83113098 0.12959290
 H   0.42221069 0.82958984 0.19115448
 H   0.44696808 0.77906036 0.20125580
 H   0.44696808 0.81948853 0.24168396
Zn   0.13352203 0.26130676 0.50945282
Zn   0.38353729 0.01129150 0.75946808
Zn   0.13352203 0.01129150 0.75946808
Zn   0.38353729 0.26130676 0.50945282
Zn   0.00852966 0.13628387 0.75946808
Zn   0.25854492 0.38629913 0.50945282
Zn   0.25854492 0.01129150 0.63444519
Zn   0.00852966 0.26130676 0.88446045
Zn   0.25854492 0.13628387 0.50945282
Zn   0.00852966 0.38629913 0.75946808
Zn   0.00852966 0.26130676 0.63444519
Zn   0.25854492 0.01129150 0.88446045
 C   0.32353973 0.49491882 0.69444275
 N   0.31054688 0.01129150 0.65828705
 N   0.35969543 0.01129150 0.70743561
 C   0.34021759 0.03967285 0.64781189
 C   0.37017059 0.03967285 0.67775726
 C   0.30065918 0.46253967 0.71732330
 H   0.39803314 0.05780029 0.68000031
 H   0.33798218 0.05780029 0.61994934
 H   0.27832031 0.47762299 0.73968506
 H   0.28286743 0.44263458 0.69468689
 H   0.32329559 0.44263458 0.73513794
 C   0.07693481 0.24121857 0.94104767
 N   0.06053162 0.26130676 0.90827179
 N   0.10971069 0.26130676 0.95745087
 C   0.08433533 0.29608154 0.90369415
 C   0.11428833 0.29608154 0.93363953
 C   0.06074524 0.20159149 0.95723724
 H   0.13840485 0.31826019 0.93963623
 H   0.07834625 0.31826019 0.87957764
 H   0.03641510 0.20797729 0.98159027
 H   0.04652405 0.18321991 0.93103027
 H   0.08695221 0.18321991 0.97148895
 C   0.19351196 0.02769470 0.69444275
 N   0.20650482 0.01129150 0.65828705
 N   0.15735626 0.01129150 0.70743561
 C   0.17683411 0.48291016 0.64781189
 C   0.14688110 0.48291016 0.67775726
 C   0.21639252 0.06004333 0.71732330
 H   0.11901855 0.46478271 0.68000031
 H   0.17907715 0.46478271 0.61994934
 H   0.23876190 0.04496002 0.73968506
 H   0.23421478 0.07997894 0.69468689
 H   0.19375610 0.07997894 0.73513794
 C   0.44011688 0.24121857 0.94104767
 N   0.45652008 0.26130676 0.90827179
 N   0.40737152 0.26130676 0.95745087
 C   0.43271637 0.29608154 0.90369415
 C   0.40276337 0.29608154 0.93363953
 C   0.45630646 0.20159149 0.95723724
 H   0.37864685 0.31826019 0.93963623
 H   0.43870544 0.31826019 0.87957764
 H   0.44020844 0.17498779 0.94113922
 H   0.49076843 0.19974518 0.95124054
 H   0.45031738 0.19974518 0.99169922
 C   0.06929016 0.25528717 0.57021332
 N   0.06053162 0.26130676 0.61064148
 N   0.10971069 0.26130676 0.56146240
 C   0.09757996 0.27169037 0.62845612
 C   0.12752533 0.27169037 0.59851074
 C   0.03804779 0.24346161 0.53897858
 H   0.16008759 0.27832794 0.60096741
 H   0.10003662 0.27832794 0.66098785
 H   0.03610992 0.20853424 0.53704071
 H   0.50683594 0.25636292 0.54818726
 H   0.04726410 0.25636292 0.00776672
 C   0.32093048 0.02287292 0.82186127
 N   0.31054688 0.01129150 0.86062622
 N   0.35969543 0.01129150 0.81147766
 C   0.34473419 0.49123383 0.87561798
 C   0.37468719 0.49123383 0.84566498
 C   0.29291534 0.04575348 0.79384613
 H   0.40543365 0.47839355 0.84631348
 H   0.34538269 0.47839355 0.90636444
 H   0.27408600 0.02299500 0.77501678
 H   0.27138519 0.06591034 0.81273651
 H   0.31180573 0.06591034 0.77230835
 C   0.44352722 0.27767944 0.57445526
 N   0.45652008 0.26130676 0.61064148
 N   0.40737152 0.26130676 0.56146240
 C   0.42684937 0.23289490 0.62111664
 C   0.39689636 0.23289490 0.59116364
 C   0.46640778 0.31005859 0.55156708
 H   0.36903381 0.21476746 0.58892059
 H   0.42906189 0.21476746 0.64897919
 H   0.45574951 0.34163666 0.56226349
 H   0.50072479 0.30661774 0.55771637
 H   0.46026611 0.30661774 0.51725769
 C   0.19351196 0.49491882 0.82447052
 N   0.20650482 0.01129150 0.86062622
 N   0.15735626 0.01129150 0.81147766
 C   0.17683411 0.03967285 0.87110138
 C   0.14688110 0.03967285 0.84114838
 C   0.21639252 0.46253967 0.80158234
 H   0.11901855 0.05780029 0.83890533
 H   0.17907715 0.05780029 0.89896393
 H   0.23876190 0.47762299 0.77922058
 H   0.23421478 0.44263458 0.82422638
 H   0.19375610 0.44263458 0.78376770
 C   0.19612122 0.32369232 0.52103424
 N   0.20650482 0.36246490 0.50945282
 N   0.15735626 0.31330872 0.50945282
 C   0.17231750 0.37744904 0.98939514
 C   0.14236450 0.34750366 0.98939514
 C   0.22416687 0.29567719 0.54392242
 H   0.11161804 0.34814453 0.97655487
 H   0.17166901 0.40820312 0.97655487
 H   0.24296570 0.27684784 0.52115631
 H   0.24567413 0.31457520 0.56407166
 H   0.20524597 0.27414703 0.56407166
 C   0.44613647 0.07370758 0.74785614
 N   0.45652008 0.11248016 0.75946808
 N   0.40737152 0.06329346 0.75946808
 C   0.42233276 0.12743378 0.77952576
 C   0.39237976 0.09751892 0.77952576
 C   0.47415161 0.04566193 0.72497559
 H   0.36163330 0.09815979 0.79233551
 H   0.42168427 0.15818787 0.79233551
 H   0.46963501 0.05017853 0.69056702
 H   0.50736237 0.05291748 0.73345184
 H   0.46693420 0.01245880 0.73345184
 C   0.02858734 0.19289398 0.82785034
 N   0.00852966 0.20926666 0.86062622
 N   0.00852966 0.16011810 0.81147766
 C   0.47375488 0.18546295 0.86523438
 C   0.47375488 0.15554047 0.83528137
 C   0.06824493 0.20908356 0.81169128
 H   0.45157623 0.13143158 0.82929230
 H   0.45157623 0.19145203 0.88934326
 H   0.06182098 0.23341370 0.78733063
 H   0.08660889 0.22330475 0.83786011
 H   0.08660889 0.18288422 0.79743958
 C   0.24214172 0.44628906 0.57445526
 N   0.25854492 0.45928192 0.61064148
 N   0.25854492 0.41013336 0.56146240
 C   0.28692627 0.42961121 0.62111664
 C   0.28692627 0.39965820 0.59116364
 C   0.20979309 0.46917725 0.55156708
 H   0.30504608 0.37180328 0.58892059
 H   0.30504608 0.43182373 0.64897919
 H   0.17818451 0.45851898 0.56226349
 H   0.21320343 0.50348663 0.55771637
 H   0.21320343 0.46303558 0.51725769
 C   0.07352448 0.44628906 0.74306488
 N   0.06053162 0.41013336 0.75946808
 N   0.10971069 0.45928192 0.75946808
 C   0.09023285 0.39965820 0.78785706
 C   0.12018585 0.42961121 0.78785706
 C   0.05064392 0.46917725 0.71072388
 H   0.14804840 0.43182373 0.80597687
 H   0.08799744 0.37180328 0.80597687
 H   0.06133270 0.45851898 0.67911530
 H   0.01635742 0.46303558 0.71413422
 H   0.05678558 0.50348663 0.71413422
 C   0.32353973 0.19627380 0.52582550
 N   0.31054688 0.16011810 0.50945282
 N   0.35969543 0.20926666 0.50945282
 C   0.34021759 0.14964294 0.98107147
 C   0.37017059 0.17959595 0.98107147
 C   0.30065918 0.21916199 0.55820465
 H   0.39803314 0.18183899 0.96294403
 H   0.33798218 0.12178802 0.96294403
 H   0.27832031 0.24152374 0.54312134
 H   0.28286743 0.19652557 0.57814026
 H   0.32329559 0.23697662 0.57814026
 C   0.01451874 0.20051575 0.69867706
 N   0.00852966 0.20926666 0.65828705
 N   0.00852966 0.16011810 0.70743561
 C   0.49814606 0.17225647 0.64046478
 C   0.49814606 0.14230347 0.67041779
 C   0.02637482 0.23178864 0.72994995
 H   0.49150848 0.10974121 0.66796112
 H   0.49150848 0.16979980 0.60791016
 H   0.06127167 0.23371887 0.73188782
 H   0.01344299 0.26299286 0.72073364
 H   0.01344299 0.22257233 0.76116180
 C   0.27491760 0.44628906 0.94445801
 N   0.25854492 0.45928192 0.90827179
 N   0.25854492 0.41013336 0.95745087
 C   0.23012543 0.42961121 0.89782715
 C   0.23012543 0.39965820 0.92774200
 C   0.30728912 0.46917725 0.96733856
 H   0.21200562 0.37180328 0.92998505
 H   0.21200562 0.43182373 0.86993408
 H   0.33886719 0.45851898 0.95664978
 H   0.30384827 0.50348663 0.96119690
 H   0.30384827 0.46303558 0.00165558
 C   0.19351196 0.19627380 0.99308014
 N   0.20650482 0.16011810 0.50945282
 N   0.15735626 0.20926666 0.50945282
 C   0.17683411 0.14964294 0.53784180
 C   0.14688110 0.17959595 0.53784180
 C   0.21639252 0.21916199 0.96070862
 H   0.11901855 0.18183899 0.55596161
 H   0.17907715 0.12178802 0.55596161
 H   0.23876190 0.24152374 0.97578430
 H   0.23421478 0.19652557 0.94077301
 H   0.19375610 0.23697662 0.94077301
 C   0.44011688 0.44287872 0.77952576
 N   0.45652008 0.41013336 0.75946808
 N   0.40737152 0.45928192 0.75946808
 C   0.43271637 0.40552521 0.72467041
 C   0.40276337 0.43547821 0.72467041
 C   0.45630646 0.45906830 0.81915283
 H   0.37864685 0.44146729 0.70249176
 H   0.43870544 0.38141632 0.70249176
 H   0.44020844 0.44297028 0.84578705
 H   0.49076843 0.45307922 0.82102966
 H   0.45031738 0.49353790 0.82102966
 C   0.27491760 0.07629395 0.57445526
 N   0.25854492 0.11248016 0.56146240
 N   0.25854492 0.06329346 0.61064148
 C   0.23012543 0.12295532 0.59116364
 C   0.23012543 0.09300232 0.62111664
 C   0.30728912 0.05340576 0.55156708
 H   0.21200562 0.09075928 0.64897919
 H   0.21200562 0.15081024 0.58892059
 H   0.29217529 0.03107452 0.52923584
 H   0.32719421 0.07604218 0.53378296
 H   0.32719421 0.03562164 0.57421112
 C   0.50253296 0.32206726 0.82022858
 N   0.00852966 0.36246490 0.81147766
 N   0.00852966 0.31330872 0.86062622
 C   0.01893616 0.38027954 0.84852600
 C   0.01893616 0.35035706 0.87844086
 C   0.49067688 0.29079437 0.78896332
 H   0.02554321 0.35278320 0.91100311
 H   0.02554321 0.41284180 0.85095215
 H   0.45578003 0.28886414 0.78702545
 H   0.50360870 0.30001068 0.75775146
 H   0.50360870 0.25959015 0.79817200
 C   0.07352448 0.07629395 0.77584076
 N   0.06053162 0.11248016 0.75946808
 N   0.10971069 0.06329346 0.75946808
 C   0.09023285 0.12295532 0.73105621
 C   0.12018585 0.09300232 0.73105621
 C   0.05064392 0.05340576 0.80821991
 H   0.14804840 0.09075928 0.71292877
 H   0.08799744 0.15081024 0.71292877
 H   0.06133270 0.06409454 0.83979797
 H   0.01635742 0.05954742 0.80477905
 H   0.05678558 0.01912689 0.80477905
 C   0.32353973 0.32630920 0.99308014
 N   0.31054688 0.36246490 0.50945282
 N   0.35969543 0.31330872 0.50945282
 C   0.34021759 0.37294006 0.53784180
 C   0.37017059 0.34298706 0.53784180
 C   0.30065918 0.30342102 0.96070862
 H   0.39803314 0.34074402 0.55596161
 H   0.33798218 0.40079498 0.55596161
 H   0.27832031 0.28108978 0.97578430
 H   0.28286743 0.32605743 0.94077301
 H   0.32329559 0.28563690 0.94077301
 C   0.24214172 0.07629395 0.94445801
 N   0.25854492 0.06329346 0.90827179
 N   0.25854492 0.11248016 0.95745087
 C   0.28692627 0.09300232 0.89782715
 C   0.28692627 0.12295532 0.92774200
 C   0.20979309 0.05340576 0.96733856
 H   0.30504608 0.15081024 0.92998505
 H   0.30504608 0.09075928 0.86993408
 H   0.17818451 0.06409454 0.95664978
 H   0.21320343 0.01912689 0.96119690
 H   0.21320343 0.05954742 0.00165558
 C   0.48846436 0.32971954 0.69106293
 N   0.00852966 0.31330872 0.65828705
 N   0.00852966 0.36246490 0.70743561
 C   0.04329681 0.33712006 0.65367889
 C   0.04329681 0.36707306 0.68362427
 C   0.44883728 0.31352997 0.70725250
 H   0.06550598 0.39118195 0.68962097
 H   0.06550598 0.33113098 0.62959290
 H   0.42221069 0.32958984 0.69115448
 H   0.44696808 0.27906036 0.70125580
 H   0.44696808 0.31948853 0.74168396
Zn   0.13352203 0.26130676 0.00945282
Zn   0.38353729 0.01129150 0.25946808
Zn   0.13352203 0.01129150 0.25946808
Zn   0.38353729 0.26130676 0.00945282
Zn   0.00852966 0.13628387 0.25946808
Zn   0.25854492 0.38629913 0.00945282
Zn   0.25854492 0.01129150 0.13444519
Zn   0.00852966 0.26130676 0.38446045
Zn   0.25854492 0.13628387 0.00945282
Zn   0.00852966 0.38629913 0.25946808
Zn   0.00852966 0.26130676 0.13444519
Zn   0.25854492 0.01129150 0.38446045
 C   0.32353973 0.49491882 0.19444275
 N   0.31054688 0.01129150 0.15828705
 N   0.35969543 0.01129150 0.20743561
 C   0.34021759 0.03967285 0.14781189
 C   0.37017059 0.03967285 0.17775726
 C   0.30065918 0.46253967 0.21732330
 H   0.39803314 0.05780029 0.18000031
 H   0.33798218 0.05780029 0.11994934
 H   0.27832031 0.47762299 0.23968506
 H   0.28286743 0.44263458 0.19468689
 H   0.32329559 0.44263458 0.23513794
 C   0.07693481 0.24121857 0.44104767
 N   0.06053162 0.26130676 0.40830231
 N   0.10971069 0.26130676 0.45745087
 C   0.08433533 0.29608154 0.40369415
 C   0.11428833 0.29608154 0.43363953
 C   0.06074524 0.20159149 0.45723724
 H   0.13840485 0.31826019 0.43963623
 H   0.07834625 0.31826019 0.37957764
 H   0.03641510 0.20797729 0.48159027
 H   0.04652405 0.18321991 0.43103027
 H   0.08695221 0.18321991 0.47148895
 C   0.19351196 0.02769470 0.19444275
 N   0.20650482 0.01129150 0.15828705
 N   0.15735626 0.01129150 0.20743561
 C   0.17683411 0.48291016 0.14781189
 C   0.14688110 0.48291016 0.17775726
 C   0.21639252 0.06004333 0.21732330
 H   0.11901855 0.46478271 0.18000031
 H   0.17907715 0.46478271 0.11994934
 H   0.23876190 0.04496002 0.23968506
 H   0.23421478 0.07997894 0.19468689
 H   0.19375610 0.07997894 0.23513794
 C   0.44011688 0.24121857 0.44104767
 N   0.45652008 0.26130676 0.40830231
 N   0.40737152 0.26130676 0.45745087
 C   0.43271637 0.29608154 0.40369415
 C   0.40276337 0.29608154 0.43363953
 C   0.45630646 0.20159149 0.45723724
 H   0.37864685 0.31826019 0.43963623
 H   0.43870544 0.31826019 0.37957764
 H   0.44020844 0.17498779 0.44113922
 H   0.49076843 0.19974518 0.45124054
 H   0.45031738 0.19974518 0.49169922
 C   0.06929016 0.25528717 0.07021332
 N   0.06053162 0.26130676 0.11064148
 N   0.10971069 0.26130676 0.06146240
 C   0.09757996 0.27169037 0.12845612
 C   0.12752533 0.27169037 0.09851074
 C   0.03804779 0.24346161 0.03897858
 H   0.16008759 0.27832794 0.10096741
 H   0.10003662 0.27832794 0.16101837
 H   0.03610992 0.20853424 0.03704071
 H   0.50683594 0.25636292 0.04818726
 H   0.04726410 0.25636292 0.50776672
 C   0.32093048 0.02287292 0.32186127
 N   0.31054688 0.01129150 0.36062622
 N   0.35969543 0.01129150 0.31147766
 C   0.34473419 0.49123383 0.37561798
 C   0.37468719 0.49123383 0.34566498
 C   0.29291534 0.04575348 0.29384613
 H   0.40543365 0.47839355 0.34631348
 H   0.34538269 0.47839355 0.40636444
 H   0.27408600 0.02299500 0.27501678
 H   0.27138519 0.06591034 0.31273651
 H   0.31180573 0.06591034 0.27230835
 C   0.44352722 0.27767944 0.07445526
 N   0.45652008 0.26130676 0.11064148
 N   0.40737152 0.26130676 0.06146240
 C   0.42684937 0.23289490 0.12111664
 C   0.39689636 0.23289490 0.09116364
 C   0.46640778 0.31005859 0.05156708
 H   0.36903381 0.21476746 0.08892059
 H   0.42906189 0.21476746 0.14897919
 H   0.45574951 0.34163666 0.06226349
 H   0.50072479 0.30661774 0.05771637
 H   0.46026611 0.30661774 0.01728821
 C   0.19351196 0.49491882 0.32447052
 N   0.20650482 0.01129150 0.36062622
 N   0.15735626 0.01129150 0.31147766
 C   0.17683411 0.03967285 0.37110138
 C   0.14688110 0.03967285 0.34114838
 C   0.21639252 0.46253967 0.30158234
 H   0.11901855 0.05780029 0.33890533
 H   0.17907715 0.05780029 0.39896393
 H   0.23876190 0.47762299 0.27925110
 H   0.23421478 0.44263458 0.32422638
 H   0.19375610 0.44263458 0.28379822
 C   0.19612122 0.32369232 0.02103424
 N   0.20650482 0.36246490 0.00945282
 N   0.15735626 0.31330872 0.00945282
 C   0.17231750 0.37744904 0.48939514
 C   0.14236450 0.34750366 0.48939514
 C   0.22416687 0.29567719 0.04392242
 H   0.11161804 0.34814453 0.47655487
 H   0.17166901 0.40820312 0.47655487
 H   0.24296570 0.27684784 0.02115631
 H   0.24567413 0.31457520 0.06407166
 H   0.20524597 0.27414703 0.06407166
 C   0.44613647 0.07370758 0.24788666
 N   0.45652008 0.11248016 0.25946808
 N   0.40737152 0.06329346 0.25946808
 C   0.42233276 0.12743378 0.27952576
 C   0.39237976 0.09751892 0.27952576
 C   0.47415161 0.04566193 0.22500610
 H   0.36163330 0.09815979 0.29233551
 H   0.42168427 0.15818787 0.29233551
 H   0.46963501 0.05017853 0.19056702
 H   0.50736237 0.05291748 0.23345184
 H   0.46693420 0.01245880 0.23345184
 C   0.02858734 0.19289398 0.32788086
 N   0.00852966 0.20926666 0.36062622
 N   0.00852966 0.16011810 0.31147766
 C   0.47375488 0.18546295 0.36523438
 C   0.47375488 0.15554047 0.33528137
 C   0.06824493 0.20908356 0.31169128
 H   0.45157623 0.13143158 0.32929230
 H   0.45157623 0.19145203 0.38934326
 H   0.06182098 0.23341370 0.28733063
 H   0.08660889 0.22330475 0.33789062
 H   0.08660889 0.18288422 0.29743958
 C   0.24214172 0.44628906 0.07445526
 N   0.25854492 0.45928192 0.11064148
 N   0.25854492 0.41013336 0.06146240
 C   0.28692627 0.42961121 0.12111664
 C   0.28692627 0.39965820 0.09116364
 C   0.20979309 0.46917725 0.05156708
 H   0.30504608 0.37180328 0.08892059
 H   0.30504608 0.43182373 0.14897919
 H   0.17818451 0.45851898 0.06226349
 H   0.21320343 0.50348663 0.05771637
 H   0.21320343 0.46303558 0.01728821
 C   0.07352448 0.44628906 0.24306488
 N   0.06053162 0.41013336 0.25946808
 N   0.10971069 0.45928192 0.25946808
 C   0.09023285 0.39965820 0.28785706
 C   0.12018585 0.42961121 0.28785706
 C   0.05064392 0.46917725 0.21072388
 H   0.14804840 0.43182373 0.30597687
 H   0.08799744 0.37180328 0.30597687
 H   0.06133270 0.45851898 0.17911530
 H   0.01635742 0.46303558 0.21413422
 H   0.05678558 0.50348663 0.21413422
 C   0.32353973 0.19627380 0.02585602
 N   0.31054688 0.16011810 0.00945282
 N   0.35969543 0.20926666 0.00945282
 C   0.34021759 0.14964294 0.48107147
 C   0.37017059 0.17959595 0.48107147
 C   0.30065918 0.21916199 0.05820465
 H   0.39803314 0.18183899 0.46295166
 H   0.33798218 0.12178802 0.46295166
 H   0.27832031 0.24152374 0.04312134
 H   0.28286743 0.19652557 0.07814026
 H   0.32329559 0.23697662 0.07814026
 C   0.01451874 0.20051575 0.19867706
 N   0.00852966 0.20926666 0.15828705
 N   0.00852966 0.16011810 0.20743561
 C   0.49814606 0.17225647 0.14046478
 C   0.49814606 0.14230347 0.17041779
 C   0.02637482 0.23178864 0.22994995
 H   0.49150848 0.10974121 0.16796112
 H   0.49150848 0.16979980 0.10791016
 H   0.06127167 0.23371887 0.23188782
 H   0.01344299 0.26299286 0.22073364
 H   0.01344299 0.22257233 0.26116180
 C   0.27491760 0.44628906 0.44445801
 N   0.25854492 0.45928192 0.40830231
 N   0.25854492 0.41013336 0.45745087
 C   0.23012543 0.42961121 0.39782715
 C   0.23012543 0.39965820 0.42777252
 C   0.30728912 0.46917725 0.46733856
 H   0.21200562 0.37180328 0.42998505
 H   0.21200562 0.43182373 0.36996460
 H   0.33886719 0.45851898 0.45668030
 H   0.30384827 0.50348663 0.46119690
 H   0.30384827 0.46303558 0.50165558
 C   0.19351196 0.19627380 0.49308014
 N   0.20650482 0.16011810 0.00945282
 N   0.15735626 0.20926666 0.00945282
 C   0.17683411 0.14964294 0.03784180
 C   0.14688110 0.17959595 0.03784180
 C   0.21639252 0.21916199 0.46070862
 H   0.11901855 0.18183899 0.05596161
 H   0.17907715 0.12178802 0.05596161
 H   0.23876190 0.24152374 0.47578430
 H   0.23421478 0.19652557 0.44080353
 H   0.19375610 0.23697662 0.44080353
 C   0.44011688 0.44287872 0.27952576
 N   0.45652008 0.41013336 0.25946808
 N   0.40737152 0.45928192 0.25946808
 C   0.43271637 0.40552521 0.22470093
 C   0.40276337 0.43547821 0.22470093
 C   0.45630646 0.45906830 0.31915283
 H   0.37864685 0.44146729 0.20249176
 H   0.43870544 0.38141632 0.20249176
 H   0.44020844 0.44297028 0.34578705
 H   0.49076843 0.45307922 0.32102966
 H   0.45031738 0.49353790 0.32102966
 C   0.27491760 0.07629395 0.07445526
 N   0.25854492 0.11248016 0.06146240
 N   0.25854492 0.06329346 0.11064148
 C   0.23012543 0.12295532 0.09116364
 C   0.23012543 0.09300232 0.12111664
 C   0.30728912 0.05340576 0.05156708
 H   0.21200562 0.09075928 0.14897919
 H   0.21200562 0.15081024 0.08892059
 H   0.29217529 0.03107452 0.02923584
 H   0.32719421 0.07604218 0.03378296
 H   0.32719421 0.03562164 0.07421112
 C   0.50253296 0.32206726 0.32022858
 N   0.00852966 0.36246490 0.31147766
 N   0.00852966 0.31330872 0.36062622
 C   0.01893616 0.38027954 0.34852600
 C   0.01893616 0.35035706 0.37844086
 C   0.49067688 0.29079437 0.28896332
 H   0.02554321 0.35278320 0.41100311
 H   0.02554321 0.41284180 0.35095215
 H   0.45578003 0.28886414 0.28702545
 H   0.50360870 0.30001068 0.25775146
 H   0.50360870 0.25959015 0.29817200
 C   0.07352448 0.07629395 0.27584076
 N   0.06053162 0.11248016 0.25946808
 N   0.10971069 0.06329346 0.25946808
 C   0.09023285 0.12295532 0.23105621
 C   0.12018585 0.09300232 0.23105621
 C   0.05064392 0.05340576 0.30821991
 H   0.14804840 0.09075928 0.21292877
 H   0.08799744 0.15081024 0.21292877
 H   0.06133270 0.06409454 0.33979797
 H   0.01635742 0.05954742 0.30477905
 H   0.05678558 0.01912689 0.30477905
 C   0.32353973 0.32630920 0.49308014
 N   0.31054688 0.36246490 0.00945282
 N   0.35969543 0.31330872 0.00945282
 C   0.34021759 0.37294006 0.03784180
 C   0.37017059 0.34298706 0.03784180
 C   0.30065918 0.30342102 0.46070862
 H   0.39803314 0.34074402 0.05596161
 H   0.33798218 0.40079498 0.05596161
 H   0.27832031 0.28108978 0.47578430
 H   0.28286743 0.32605743 0.44080353
 H   0.32329559 0.28563690 0.44080353
 C   0.24214172 0.07629395 0.44445801
 N   0.25854492 0.06329346 0.40830231
 N   0.25854492 0.11248016 0.45745087
 C   0.28692627 0.09300232 0.39782715
 C   0.28692627 0.12295532 0.42777252
 C   0.20979309 0.05340576 0.46733856
 H   0.30504608 0.15081024 0.42998505
 H   0.30504608 0.09075928 0.36996460
 H   0.17818451 0.06409454 0.45668030
 H   0.21320343 0.01912689 0.46119690
 H   0.21320343 0.05954742 0.50165558
 C   0.48846436 0.32971954 0.19106293
 N   0.00852966 0.31330872 0.15828705
 N   0.00852966 0.36246490 0.20743561
 C   0.04329681 0.33712006 0.15370941
 C   0.04329681 0.36707306 0.18362427
 C   0.44883728 0.31352997 0.20725250
 H   0.06550598 0.39118195 0.18962097
 H   0.06550598 0.33113098 0.12959290
 H   0.42221069 0.32958984 0.19115448
 H   0.44696808 0.27906036 0.20125580
 H   0.44696808 0.31948853 0.24168396
Ar   0.92227173 0.91314697 0.61165619
Ar   0.33951569 0.64227295 0.15431976
Ar   0.11456299 0.89748383 0.58471680
Ar   0.68914795 0.36869812 0.65116119
Ar   0.11840820 0.10052490 0.62560272
Ar   0.36510468 0.37815857 0.33159637
Ar   0.11545563 0.80290222 0.75366211
Ar   0.82203674 0.37078857 0.85779572
Ar   0.91707611 0.10642242 0.08074951
Ar   0.34239960 0.15364075 0.16510773
Ar   0.61708069 0.40036774 0.10797119
Ar   0.15019989 0.13840485 0.88977814
Ar   0.64147186 0.65760040 0.88574982
Ar   0.82559967 0.89824677 0.32198334
Ar   0.14515686 0.64832306 0.87604523
Ar   0.19744110 0.38291931 0.70199585
Ar   0.58187866 0.06111908 0.13220215
Ar   0.11447144 0.59008026 0.10551453
Ar   0.17547607 0.18702698 0.17444611
Ar   0.69658661 0.39459229 0.19612885
Ar   0.40930939 0.57527924 0.40181732
Ar   0.12098694 0.41833496 0.89555359
Ar   0.17720032 0.87164307 0.69059753
Ar   0.13305664 0.15354919 0.38606262
Ar   0.34400177 0.88073730 0.83841705
Ar   0.15796661 0.63910675 0.39091492
Ar   0.41615295 0.61042023 0.06720734
Ar   0.82173157 0.67213440 0.17069244
Ar   0.35155487 0.20619965 0.87158966
Ar   0.16574097 0.86986542 0.11144257
Ar   0.91117859 0.12532043 0.58453369
Ar   0.13002014 0.41969299 0.40055847
Ar   0.10584259 0.94564819 0.39588928
Ar   0.41769409 0.95811462 0.61653900
Ar   0.41013336 0.11917114 0.08747864
Ar   0.16623688 0.36897278 0.15066528
Ar   0.90325165 0.54738617 0.94190216
Ar   0.10958862 0.92626190 0.90166473
Ar   0.64543915 0.14792633 0.90983582
Ar   0.12101746 0.03804779 0.08047485
Ar   0.69216156 0.87060547 0.64784241
Ar   0.93489838 0.89271545 0.95834351
Ar   0.83766937 0.80290222 0.14504242
Ar   0.90700531 0.06652069 0.90765381
Ar   0.90414429 0.62835693 0.08840179
Ar   0.66684723 0.85662842 0.15254211
Ar   0.34912872 0.87385559 0.33365631
Ar   0.39339447 0.09650421 0.88341522
Ar   0.95713806 0.44604492 0.62815094
Ar   0.21955872 0.21415710 0.65791321
Ar   0.57186890 0.04670715 0.64049530
Ar   0.91381836 0.40408325 0.93407440
Ar   0.68355560 0.13990784 0.32363892
Ar   0.89791107 0.95421600 0.11177826
Ar   0.68958282 0.83463287 0.35144043
Ar   0.85238647 0.16478729 0.66728210
