data_cif
_audit_creation_method 'generated by iGOR'
_symmetry_space_group_name_H-M     'P 1'
_symmetry_Int_Tables_number        1
_symmetry_cell_setting             triclinic
_cell_length_a                     16.2770996
_cell_length_b                     16.2770996
_cell_length_c                     16.2770996
_cell_angle_alpha                  90.0000000
_cell_angle_beta                   90.0000000
_cell_angle_gamma                  90.0000000
loop_
_atom_site_label
_atom_site_fract_x
_atom_site_fract_y
_atom_site_fract_z
 Zn  0.250000000      0.500000000       0.00000000    
 Zn  0.750000000       0.00000000      0.500000000    
 Zn  0.250000000       0.00000000      0.500000000    
 Zn  0.750000000      0.500000000       0.00000000    
 Zn   0.00000000      0.250000000      0.500000000    
 Zn  0.500000000      0.750000000       0.00000000    
 Zn  0.500000000       0.00000000      0.250000000    
 Zn   0.00000000      0.500000000      0.750000000    
 Zn  0.500000000      0.250000000       0.00000000    
 Zn   0.00000000      0.750000000      0.500000000    
 Zn   0.00000000      0.500000000      0.250000000    
 Zn  0.500000000       0.00000000      0.750000000    
 C1  0.630020022      0.967230022      0.369980007    
 N1  0.604030013       0.00000000      0.297650009    
 N1  0.702350020       0.00000000      0.395969987    
 C2  0.663399994       5.67900017E-02  0.276710004    
 C2  0.723290026       5.67900017E-02  0.336600006    
 C3  0.584249973      0.902499974      0.415749997    
 H1  0.779020011       9.30299982E-02  0.341080010    
 H1  0.658919990       9.30299982E-02  0.220980003    
 H2  0.539560020      0.932680011      0.460440010    
 H2  0.548650026      0.862649977      0.370480001    
 H2  0.629519999      0.862649977      0.451350003    
 C1  0.136810005      0.459859997      0.863189995    
 N1  0.104029998      0.500000000      0.797649980    
 N1  0.202350006      0.500000000      0.895969987    
 C2  0.151639998      0.569549978      0.788469970    
 C2  0.211530000      0.569549978      0.848360002    
 C3  0.104440004      0.380589992      0.895560026    
 H1  0.259750009      0.613929987      0.860339999    
 H1  0.139660001      0.613929987      0.740249991    
 H2   5.57500012E-02  0.393390000      0.944249988    
 H2   7.59700015E-02  0.343860000      0.843159974    
 H2  0.156839997      0.343860000      0.924030006    
 C1  0.369980007       3.27700004E-02  0.369980007    
 N1  0.395969987       0.00000000      0.297650009    
 N1  0.297650009       0.00000000      0.395969987    
 C2  0.336600006      0.943210006      0.276710004    
 C2  0.276710004      0.943210006      0.336600006    
 C3  0.415749997       9.74999964E-02  0.415749997    
 H1  0.220980003      0.906970024      0.341080010    
 H1  0.341080010      0.906970024      0.220980003    
 H2  0.460440010       6.73199967E-02  0.460440010    
 H2  0.451350003      0.137349993      0.370480001    
 H2  0.370480001      0.137349993      0.451350003    
 C1  0.863189995      0.459859997      0.863189995    
 N1  0.895969987      0.500000000      0.797649980    
 N1  0.797649980      0.500000000      0.895969987    
 C2  0.848360002      0.569549978      0.788469970    
 C2  0.788469970      0.569549978      0.848360002    
 C3  0.895560026      0.380589992      0.895560026    
 H1  0.740249991      0.613929987      0.860339999    
 H1  0.860339999      0.613929987      0.740249991    
 H2  0.863380015      0.327360004      0.863380015    
 H2  0.964470029      0.376879990      0.883589983    
 H2  0.883589983      0.376879990      0.964470029    
 C1  0.121540003      0.488009989      0.121540003    
 N1  0.104029998      0.500000000      0.202350006    
 N1  0.202350006      0.500000000      0.104029998    
 C2  0.178100005      0.520789981      0.237979993    
 C2  0.237979993      0.520789981      0.178100005    
 C3   5.90099990E-02  0.464309990       5.90099990E-02
 H1  0.303090006      0.534049988      0.182999998    
 H1  0.182999998      0.534049988      0.303090006    
 H2   5.51499985E-02  0.394490004       5.51499985E-02
 H2  0.996590018      0.490159988       7.74599984E-02
 H2   7.74599984E-02  0.490159988      0.996590018    
 C1  0.624809980       2.31699999E-02  0.624809980    
 N1  0.604030013       0.00000000      0.702350020    
 N1  0.702350020       0.00000000      0.604030013    
 C2  0.672429979      0.959850013      0.732309997    
 C2  0.732309997      0.959850013      0.672429979    
 C3  0.568750024       6.89399987E-02  0.568750024    
 H1  0.793799996      0.934220016      0.673709989    
 H1  0.673709989      0.934220016      0.793799996    
 H2  0.531109989       2.34299991E-02  0.531109989    
 H2  0.525699973      0.109209999      0.606570005    
 H2  0.606570005      0.109209999      0.525699973    
 C1  0.869979978      0.532769978      0.130019993    
 N1  0.895969987      0.500000000      0.202350006    
 N1  0.797649980      0.500000000      0.104029998    
 C2  0.836600006      0.443210006      0.223289996    
 C2  0.776709974      0.443210006      0.163399994    
 C3  0.915750027      0.597500026       8.42500031E-02
 H1  0.720979989      0.406969994      0.158920005    
 H1  0.841080010      0.406969994      0.279020011    
 H2  0.894410014      0.660700023      0.105590001    
 H2  0.984369993      0.590659976       9.65000018E-02
 H2  0.903500021      0.590659976       1.56299993E-02
 C1  0.369980007      0.967230022      0.630020022    
 N1  0.395969987       0.00000000      0.702350020    
 N1  0.297650009       0.00000000      0.604030013    
 C2  0.336600006       5.67900017E-02  0.723290026    
 C2  0.276710004       5.67900017E-02  0.663399994    
 C3  0.415749997      0.902499974      0.584249973    
 H1  0.220980003       9.30299982E-02  0.658919990    
 H1  0.341080010       9.30299982E-02  0.779020011    
 H2  0.460440010      0.932680011      0.539560020    
 H2  0.451350003      0.862649977      0.629519999    
 H2  0.370480001      0.862649977      0.548650026    
 C1  0.375189990      0.624809980       2.31699999E-02
 N1  0.395969987      0.702350020       0.00000000    
 N1  0.297650009      0.604030013       0.00000000    
 C2  0.327569991      0.732309997      0.959850013    
 C2  0.267690003      0.672429979      0.959850013    
 C3  0.431250006      0.568750024       6.89399987E-02
 H1  0.206200004      0.673709989      0.934220016    
 H1  0.326290011      0.793799996      0.934220016    
 H2  0.468890011      0.531109989       2.34299991E-02
 H2  0.474299997      0.606570005      0.109209999    
 H2  0.393429995      0.525699973      0.109209999    
 C1  0.875190020      0.124810003      0.476830006    
 N1  0.895969987      0.202350006      0.500000000    
 N1  0.797649980      0.104029998      0.500000000    
 C2  0.827570021      0.232309997      0.540149987    
 C2  0.767690003      0.172429994      0.540149987    
 C3  0.931249976       6.87500015E-02  0.431059986    
 H1  0.706200004      0.173710003      0.565779984    
 H1  0.826290011      0.293799996      0.565779984    
 H2  0.922200024       7.77999982E-02  0.362199992    
 H2  0.997650027       8.32199976E-02  0.447979987    
 H2  0.916779995       2.34999997E-03  0.447979987    
 C1   4.01399992E-02  0.363189995      0.636810005    
 N1   0.00000000      0.395969987      0.702350020    
 N1   0.00000000      0.297650009      0.604030013    
 C2  0.930450022      0.348360002      0.711530030    
 C2  0.930450022      0.288470000      0.651639998    
 C3  0.119410001      0.395559996      0.604439974    
 H1  0.886070013      0.240250006      0.639660001    
 H1  0.886070013      0.360339999      0.759750009    
 H2  0.106610000      0.444249988      0.555750012    
 H2  0.156140000      0.424030006      0.656840026    
 H2  0.156140000      0.343160003      0.575969994    
 C1  0.467229992      0.869979978      0.130019993    
 N1  0.500000000      0.895969987      0.202350006    
 N1  0.500000000      0.797649980      0.104029998    
 C2  0.556789994      0.836600006      0.223289996    
 C2  0.556789994      0.776709974      0.163399994    
 C3  0.402500004      0.915750027       8.42500031E-02
 H1  0.593029976      0.720979989      0.158920005    
 H1  0.593029976      0.841080010      0.279020011    
 H2  0.339300007      0.894410014      0.105590001    
 H2  0.409339994      0.984369993       9.65000018E-02
 H2  0.409339994      0.903500021       1.56299993E-02
 C1  0.130019993      0.869979978      0.467229992    
 N1  0.104029998      0.797649980      0.500000000    
 N1  0.202350006      0.895969987      0.500000000    
 C2  0.163399994      0.776709974      0.556789994    
 C2  0.223289996      0.836600006      0.556789994    
 C3   8.42500031E-02  0.915750027      0.402500004    
 H1  0.279020011      0.841080010      0.593029976    
 H1  0.158920005      0.720979989      0.593029976    
 H2  0.105590001      0.894410014      0.339300007    
 H2   1.56299993E-02  0.903500021      0.409339994    
 H2   9.65000018E-02  0.984369993      0.409339994    
 C1  0.630020022      0.369980007       3.27700004E-02
 N1  0.604030013      0.297650009       0.00000000    
 N1  0.702350020      0.395969987       0.00000000    
 C2  0.663399994      0.276710004      0.943210006    
 C2  0.723290026      0.336600006      0.943210006    
 C3  0.584249973      0.415749997       9.74999964E-02
 H1  0.779020011      0.341080010      0.906970024    
 H1  0.658919990      0.220980003      0.906970024    
 H2  0.539560020      0.460440010       6.73199967E-02
 H2  0.548650026      0.370480001      0.137349993    
 H2  0.629519999      0.451350003      0.137349993    
 C1   1.19899996E-02  0.378459990      0.378459990    
 N1   0.00000000      0.395969987      0.297650009    
 N1   0.00000000      0.297650009      0.395969987    
 C2  0.979210019      0.321900010      0.262019992    
 C2  0.979210019      0.262019992      0.321900010    
 C3   3.56899984E-02  0.440990001      0.440990001    
 H1  0.965950012      0.196909994      0.317000002    
 H1  0.965950012      0.317000002      0.196909994    
 H2  0.105509996      0.444849998      0.444849998    
 H2   9.84000042E-03  0.503409982      0.422540009    
 H2   9.84000042E-03  0.422540009      0.503409982    
 C1  0.532769978      0.869979978      0.869979978    
 N1  0.500000000      0.895969987      0.797649980    
 N1  0.500000000      0.797649980      0.895969987    
 C2  0.443210006      0.836600006      0.776709974    
 C2  0.443210006      0.776709974      0.836600006    
 C3  0.597500026      0.915750027      0.915750027    
 H1  0.406969994      0.720979989      0.841080010    
 H1  0.406969994      0.841080010      0.720979989    
 H2  0.660700023      0.894410014      0.894410014    
 H2  0.590659976      0.984369993      0.903500021    
 H2  0.590659976      0.903500021      0.984369993    
 C1  0.369980007      0.369980007      0.967230022    
 N1  0.395969987      0.297650009       0.00000000    
 N1  0.297650009      0.395969987       0.00000000    
 C2  0.336600006      0.276710004       5.67900017E-02
 C2  0.276710004      0.336600006       5.67900017E-02
 C3  0.415749997      0.415749997      0.902499974    
 H1  0.220980003      0.341080010       9.30299982E-02
 H1  0.341080010      0.220980003       9.30299982E-02
 H2  0.460440010      0.460440010      0.932680011    
 H2  0.451350003      0.370480001      0.862649977    
 H2  0.370480001      0.451350003      0.862649977    
 C1  0.863189995      0.863189995      0.540139973    
 N1  0.895969987      0.797649980      0.500000000    
 N1  0.797649980      0.895969987      0.500000000    
 C2  0.848360002      0.788469970      0.430449992    
 C2  0.788469970      0.848360002      0.430449992    
 C3  0.895560026      0.895560026      0.619409978    
 H1  0.740249991      0.860339999      0.386070013    
 H1  0.860339999      0.740249991      0.386070013    
 H2  0.863380015      0.863380015      0.672640026    
 H2  0.964470029      0.883589983      0.623120010    
 H2  0.883589983      0.964470029      0.623120010    
 C1  0.532769978      0.130019993      0.130019993    
 N1  0.500000000      0.202350006      0.104029998    
 N1  0.500000000      0.104029998      0.202350006    
 C2  0.443210006      0.223289996      0.163399994    
 C2  0.443210006      0.163399994      0.223289996    
 C3  0.597500026       8.42500031E-02   8.42500031E-02
 H1  0.406969994      0.158920005      0.279020011    
 H1  0.406969994      0.279020011      0.158920005    
 H2  0.567319989       3.95600013E-02   3.95600013E-02
 H2  0.637350023      0.129519999       4.86500002E-02
 H2  0.637350023       4.86500002E-02  0.129519999    
 C1  0.988009989      0.621540010      0.621540010    
 N1   0.00000000      0.702350020      0.604030013    
 N1   0.00000000      0.604030013      0.702350020    
 C2   2.07899995E-02  0.737980008      0.678099990    
 C2   2.07899995E-02  0.678099990      0.737980008    
 C3  0.964309990      0.559010029      0.559010029    
 H1   3.40499990E-02  0.683000028      0.803089976    
 H1   3.40499990E-02  0.803089976      0.683000028    
 H2  0.894490004      0.555149972      0.555149972    
 H2  0.990159988      0.577459991      0.496589988    
 H2  0.990159988      0.496589988      0.577459991    
 C1  0.130019993      0.130019993      0.532769978    
 N1  0.104029998      0.202350006      0.500000000    
 N1  0.202350006      0.104029998      0.500000000    
 C2  0.163399994      0.223289996      0.443210006    
 C2  0.223289996      0.163399994      0.443210006    
 C3   8.42500031E-02   8.42500031E-02  0.597500026    
 H1  0.279020011      0.158920005      0.406969994    
 H1  0.158920005      0.279020011      0.406969994    
 H2  0.105590001      0.105590001      0.660700023    
 H2   1.56299993E-02   9.65000018E-02  0.590659976    
 H2   9.65000018E-02   1.56299993E-02  0.590659976    
 C1  0.630020022      0.630020022      0.967230022    
 N1  0.604030013      0.702350020       0.00000000    
 N1  0.702350020      0.604030013       0.00000000    
 C2  0.663399994      0.723290026       5.67900017E-02
 C2  0.723290026      0.663399994       5.67900017E-02
 C3  0.584249973      0.584249973      0.902499974    
 H1  0.779020011      0.658919990       9.30299982E-02
 H1  0.658919990      0.779020011       9.30299982E-02
 H2  0.539560020      0.539560020      0.932680011    
 H2  0.548650026      0.629519999      0.862649977    
 H2  0.629519999      0.548650026      0.862649977    
 C1  0.467229992      0.130019993      0.869979978    
 N1  0.500000000      0.104029998      0.797649980    
 N1  0.500000000      0.202350006      0.895969987    
 C2  0.556789994      0.163399994      0.776709974    
 C2  0.556789994      0.223289996      0.836600006    
 C3  0.402500004       8.42500031E-02  0.915750027    
 H1  0.593029976      0.279020011      0.841080010    
 H1  0.593029976      0.158920005      0.720979989    
 H2  0.339300007      0.105590001      0.894410014    
 H2  0.409339994       1.56299993E-02  0.903500021    
 H2  0.409339994       9.65000018E-02  0.984369993    
 C1  0.959860027      0.636810005      0.363189995    
 N1   0.00000000      0.604030013      0.297650009    
 N1   0.00000000      0.702350020      0.395969987    
 C2   6.95500001E-02  0.651639998      0.288470000    
 C2   6.95500001E-02  0.711530030      0.348360002    
 C3  0.880590022      0.604439974      0.395559996    
 H1  0.113930002      0.759750009      0.360339999    
 H1  0.113930002      0.639660001      0.240250006    
 H2  0.827359974      0.636619985      0.363380015    
 H2  0.876879990      0.535529971      0.383590013    
 H2  0.876879990      0.616410017      0.464469999    
