data_cif
_audit_creation_method 'generated by iGOR'
_symmetry_space_group_name_H-M     'P 1'
_symmetry_Int_Tables_number        1
_symmetry_cell_setting             triclinic
_cell_length_a                     22.6273003
_cell_length_b                     22.6273003
_cell_length_c                     18.7943001
_cell_angle_alpha                  90.0000000
_cell_angle_beta                   90.0000000
_cell_angle_gamma                 120.0000000
loop_
_atom_site_label
_atom_site_fract_x
_atom_site_fract_y
_atom_site_fract_z
 Zn   7.93500021E-02  0.414110005      0.375000000    
 Zn   7.93500021E-02  0.414110005      0.875000000    
 Zn  0.918139994      0.584129989      0.125000000    
 Zn  0.918139994      0.584129989      0.625000000    
 Zn  0.583760023      0.664740026      0.375000000    
 Zn  0.583760023      0.664740026      0.875000000    
 Zn  0.333130002      0.918519974      0.375000000    
 Zn  0.333130002      0.918519974      0.875000000    
 Zn  0.664359987       7.97199979E-02  0.125000000    
 Zn  0.664359987       7.97199979E-02  0.625000000    
 Zn  0.413740009      0.333510011      0.125000000    
 Zn  0.413740009      0.333510011      0.625000000    
 Zn  0.664359987      0.584129989      0.125000000    
 Zn  0.664359987      0.584129989      0.625000000    
 Zn  0.918139994      0.333510011      0.125000000    
 Zn  0.918139994      0.333510011      0.625000000    
 Zn  0.413740009       7.97199979E-02  0.125000000    
 Zn  0.413740009       7.97199979E-02  0.625000000    
 Zn  0.583760023      0.918519974      0.375000000    
 Zn  0.583760023      0.918519974      0.875000000    
 Zn   7.93500021E-02  0.664740026      0.375000000    
 Zn   7.93500021E-02  0.664740026      0.875000000    
 Zn  0.333130002      0.414110005      0.375000000    
 Zn  0.333130002      0.414110005      0.875000000    
 C1  0.987259984      0.379649997      0.258049995    
 N1  0.947660029      0.327410012      0.213259995    
 N1   1.20999999E-02  0.359629989      0.313190013    
 C2  0.947470009      0.271109998      0.241750002    
 C2  0.986720026      0.290730000      0.302619994    
 C3   1.82999996E-03  0.451009989      0.247840002    
 H1  0.998290002      0.260650009      0.338939995    
 H1  0.919579983      0.221290007      0.216869995    
 H2   4.98300008E-02  0.480379999      0.214190006    
 H2  0.956900001      0.450370014      0.219659999    
 H2   9.90999956E-03  0.476870000      0.301860005    
 C1  0.987259984      0.379649997      0.758050025    
 N1  0.947660029      0.327410012      0.713259995    
 N1   1.20999999E-02  0.359629989      0.813189983    
 C2  0.947470009      0.271109998      0.741750002    
 C2  0.986720026      0.290730000      0.802619994    
 C3   1.82999996E-03  0.451009989      0.747839987    
 H1  0.998290002      0.260650009      0.838940024    
 H1  0.919579983      0.221290007      0.716870010    
 H2   4.98300008E-02  0.480379999      0.714190006    
 H2  0.956900001      0.450370014      0.719659984    
 H2   9.90999956E-03  0.476870000      0.801859975    
 C1  0.995679975      0.619520009      0.997850001    
 N1   4.98300008E-02  0.670830011      0.963259995    
 N1  0.985390007      0.638610005       6.31899983E-02
 C2   7.52400011E-02  0.725539982       9.44000017E-03
 C2   3.59899998E-02  0.705910027       7.03099966E-02
 H1  0.964150012      0.568899989      0.975750029    
 H2   4.05200012E-02  0.734979987      0.117909998    
 H2  0.119230002      0.774339974      0.995840013    
 C1  0.990419984      0.623629987      0.494159997    
 N1   4.98300008E-02  0.670830011      0.463259995    
 N1  0.985390007      0.638610005      0.563189983    
 C2   8.43700022E-02  0.718410015      0.515829980    
 C2   4.51200008E-02  0.698780000      0.576699972    
 H1  0.951319993      0.578939974      0.466749996    
 H2   5.54599985E-02  0.723290026      0.628380001    
 H2  0.134179994      0.762650013      0.506320000    
 C1  0.618219972      0.607110023      0.258049995    
 N1  0.670459986      0.619740009      0.213259995    
 N1  0.638239980      0.651970029      0.313190013    
 C2  0.726760030      0.675859988      0.241750002    
 C2  0.707140028      0.695479989      0.302619994    
 C3  0.546859980      0.550329983      0.247840002    
 H1  0.737219989      0.737140000      0.338939995    
 H1  0.776579976      0.697780013      0.216869995    
 H2  0.517490029      0.568960011      0.214190006    
 H2  0.547500014      0.506039977      0.219659999    
 H2  0.521000028      0.532540023      0.301860005    
 C1  0.617420018      0.614099979      0.752590001    
 N1  0.670459986      0.619740009      0.713259995    
 N1  0.638239980      0.651970029      0.813189983    
 C2  0.728139997      0.663739979      0.751219988    
 C2  0.708519995      0.683359981      0.812089980    
 H1  0.564339995      0.582830012      0.737299979    
 C3  0.757130027      0.727590024      0.859340012    
 C3  0.796370029      0.688340008      0.737619996    
 C4  0.825349987      0.752189994      0.845740020    
 C4  0.844969988      0.732559979      0.784870028    
 H2  0.740899980      0.743820012      0.909669995    
 H2  0.812600017      0.672110021      0.687279999    
 H3  0.865559995      0.788770020      0.884819984    
 H3  0.901409984      0.752919972      0.773620009    
 C1  0.356260002      0.987380028      0.241769999    
 N1  0.378129989       5.02099991E-02  0.213259995    
 N1  0.345899999      0.985769987      0.313190013    
 C2  0.381799996       9.06499997E-02  0.269970000    
 C2  0.362170011       5.13999984E-02  0.330839992    
 H1  0.347990006      0.943369985      0.210920006    
 H2  0.358669996       6.55200034E-02  0.385159999    
 H2  0.398030013      0.144229993      0.263090014    
 C1  0.375290006      0.996060014      0.747850001    
 N1  0.378129989       5.02099991E-02  0.713259995    
 N1  0.345899999      0.985769987      0.813189983    
 C2  0.348830014       7.56200030E-02  0.759429991    
 C2  0.329200000       3.63700017E-02  0.820299983    
 H1  0.394369990      0.964519978      0.725750029    
 C3  0.298390001       5.14499992E-02  0.875039995    
 C3  0.337639987      0.129930004      0.753319979    
 C4  0.287200004      0.105760001      0.868939996    
 C4  0.306829989      0.145009995      0.808070004    
 H2  0.282160014       1.89900007E-02  0.925379992    
 H2  0.353870004      0.162389994      0.702989995    
 H3  0.261709988      0.118239999      0.914229989    
 H3  0.297569990      0.189950004      0.803020000    
 C1  0.658720016       1.13300001E-02  0.991439998    
 N1  0.619369984      0.948029995      0.963259995    
 N1  0.651589990       1.24700004E-02   6.31899983E-02
 C2  0.585389972      0.906769991       2.05499995E-02
 C2  0.605009973      0.946009994       8.14199969E-02
 H1  0.692139983       5.60199991E-02  0.960120022    
 H2  0.589169979      0.931370020      0.136109993    
 H2  0.549809992      0.852660000       1.40399998E-02
 C1  0.650489986       1.21799996E-02  0.490839988    
 N1  0.619369984      0.948029995      0.463259995    
 N1  0.651589990       1.24700004E-02  0.563189983    
 C2  0.599650025      0.905290008      0.521579981    
 C2  0.619270027      0.944540024      0.582449973    
 H1  0.672070026       5.80900013E-02  0.458660007    
 H2  0.612540007      0.928960025      0.637799978    
 H2  0.573180020      0.850239992      0.515730023    
 C1  0.368000001      0.356629997      0.991770029    
 N1  0.327039987      0.378500015      0.963259995    
 N1  0.359259993      0.346280009       6.31899983E-02
 C2  0.290270001      0.382180005       1.99800003E-02
 C2  0.309899986      0.362560004       8.08399990E-02
 C3  0.417079985      0.345259994      0.949389994    
 H1  0.292290002      0.359059989      0.135169998    
 H1  0.252929986      0.398420006       1.31000001E-02
 H2  0.390610009      0.290329993      0.929440022    
 H2  0.435849994      0.381619990      0.902050018    
 H2  0.462350011      0.355120003      0.984250009    
 C1  0.360069990      0.347380012      0.490839988    
 N1  0.327039987      0.378500015      0.463259995    
 N1  0.359259993      0.346280009      0.563189983    
 C2  0.304019988      0.398220003      0.521579981    
 C2  0.323639989      0.378600001      0.582449973    
 C3  0.393489987      0.317730010      0.446630001    
 H1  0.314799994      0.385329992      0.637809992    
 H1  0.275440007      0.424690008      0.515739977    
 H2  0.355179995      0.262030005      0.434439987    
 H2  0.412180007      0.347479999      0.394710004    
 H2  0.438679993      0.320980012      0.476909995    
 C1   1.81000005E-03  0.622579992      0.247850001    
 N1   1.20999999E-02  0.651970029      0.313190013    
 N1  0.947660029      0.619740009      0.213259995    
 C2  0.961499989      0.668669999      0.320300013    
 C2  0.922249973      0.649049997      0.259429991    
 H1   3.33399996E-02  0.603489995      0.225749999    
 H2  0.878260016      0.653859973      0.245829999    
 H2  0.956979990      0.693220019      0.367900014    
 C1   1.81000005E-03  0.622579992      0.747850001    
 N1   1.20999999E-02  0.651970029      0.813189983    
 N1  0.947660029      0.619740009      0.713259995    
 C2  0.961499989      0.668669999      0.820299983    
 C2  0.922249973      0.649049997      0.759429991    
 C3   4.51299995E-02  0.596360028      0.717490017    
 H1  0.878260016      0.653859973      0.745829999    
 H1  0.956979990      0.693220019      0.867900014    
 H2   8.92700031E-02  0.638830006      0.686540008    
 H2   6.61299974E-02  0.578339994      0.762440026    
 H2   1.31200003E-02  0.551840007      0.680239975    
 C1   1.02300001E-02  0.391140014       8.05000030E-03
 N1  0.985390007      0.346280009       6.31899983E-02
 N1   4.98300008E-02  0.378500015      0.963259995    
 C2   1.07800001E-02  0.302769989       5.26299998E-02
 C2   5.00300005E-02  0.322389990      0.991760015    
 H1  0.999620020      0.432460010       6.09999988E-04
 H2   7.79199973E-02  0.300469995      0.966880023    
 H2  0.999210000      0.261110008       8.89500007E-02
 C1   1.85300000E-02  0.396169990      0.513870001    
 N1  0.985390007      0.346280009      0.563189983    
 N1   4.98300008E-02  0.378500015      0.463259995    
 C2  0.996399999      0.294039994      0.542550027    
 C2   3.56500000E-02  0.313659996      0.481680006    
 H1   1.98400002E-02  0.444739997      0.514789999    
 C3   5.38199991E-02  0.270029992      0.450250000    
 C3  0.975340009      0.230790004      0.571959972    
 C4   3.27600017E-02  0.206780002      0.479660004    
 C4  0.993499994      0.187150002      0.540520012    
 H2   8.62800032E-02  0.286260009      0.399910003    
 H2  0.942879975      0.214560002      0.622300029    
 H3   4.77899984E-02  0.170680001      0.453649998    
 H3  0.976080000      0.134829998      0.564849973    
 C1  0.383769989      0.380450010      0.252590001    
 N1  0.345899999      0.359629989      0.313190013    
 N1  0.378129989      0.327410012      0.213259995    
 C2  0.314509988      0.289350003      0.312090009    
 C2  0.334129989      0.269730002      0.251219988    
 H1  0.415039986      0.433530003      0.237299994    
 C3  0.309529990      0.201499999      0.237619996    
 C3  0.270280004      0.240740001      0.359340012    
 C4  0.265309989      0.152899995      0.284869999    
 C4  0.245680004      0.172519997      0.345739990    
 H2  0.325760007      0.185269997      0.187279999    
 H2  0.254049987      0.256969988      0.409669995    
 H3  0.244949996       9.64599997E-02  0.273620009    
 H3  0.209099993      0.132310003      0.384820014    
 C1  0.395799994      0.376390010      0.763870001    
 N1  0.345899999      0.359629989      0.813189983    
 N1  0.378129989      0.327410012      0.713259995    
 C2  0.293660015      0.296380013      0.792540014    
 C2  0.313290000      0.276760012      0.731670022    
 C3  0.462529987      0.441300005      0.765139997    
 H1  0.285789996      0.230550006      0.700360000    
 H1  0.246429995      0.269899994      0.822430015    
 H2  0.458160013      0.481970012      0.733569980    
 H2  0.476980001      0.459050000      0.822510004    
 H2  0.503489971      0.432550013      0.740310013    
 C1  0.626980007       2.71400008E-02  0.269639999    
 N1  0.638239980      0.985769987      0.313190013    
 N1  0.670459986       5.02099991E-02  0.213259995    
 C2  0.691959977      0.982509971      0.282550007    
 C2  0.711579978       2.17599999E-02  0.221680000    
 H1  0.587629974       4.02900018E-02  0.278860003    
 C3  0.764689982       2.69099995E-02  0.181109995    
 C3  0.725449979      0.948419988      0.302830011    
 C4  0.798179984      0.992820024      0.201389998    
 C4  0.778550029      0.953570008      0.262259990    
 H2  0.780920029       5.93600012E-02  0.130769998    
 H2  0.709219992      0.915960014      0.353170007    
 H3  0.842109978      0.997070014      0.167830005    
 H3  0.806249976      0.925369978      0.279040009    
 C1  0.621479988       1.88999996E-02  0.763870001    
 N1  0.638239980      0.985769987      0.813189983    
 N1  0.670459986       5.02099991E-02  0.713259995    
 C2  0.701489985      0.996779978      0.792550027    
 C2  0.721109986       3.60299982E-02  0.731679976    
 H1  0.574230015       2.02200003E-02  0.764789999    
 C3  0.782920003       5.42000011E-02  0.700240016    
 C3  0.743680000      0.975719988      0.821959972    
 C4  0.825100005       3.31400000E-02  0.729650021    
 C4  0.805480003      0.993889987      0.790520012    
 H2  0.799149990       8.66599977E-02  0.649909973    
 H2  0.727450013      0.943260014      0.872300029    
 H3  0.876240015       4.81700003E-02  0.703649998    
 H3  0.840380013      0.976459980      0.814849973    
 C1  0.374240011       7.44999992E-03  0.994159997    
 N1  0.359259993       1.24700004E-02   6.31899983E-02
 N1  0.327039987      0.948029995      0.963259995    
 C2  0.299089998      0.952750027       7.67000020E-02
 C2  0.279460013      0.913500011       1.58300009E-02
 C3  0.435649991       6.11700006E-02  0.956499994    
 H1  0.235210001      0.863699973       6.31000008E-03
 H1  0.274569988      0.942409992      0.128380001    
 H2  0.422809988       9.87500027E-02  0.930159986    
 H2  0.478810012       8.94299969E-02  0.996370018    
 H2  0.452300012       3.64300013E-02  0.914170027    
 C1  0.380070001      0.995419979      0.502590001    
 N1  0.359259993       1.24700004E-02  0.563189983    
 N1  0.327039987      0.948029995      0.463259995    
 C2  0.288980007      0.973590016      0.562089980    
 C2  0.269349992      0.934340000      0.501219988    
 H1  0.433160007       1.72400009E-02  0.487300009    
 C3  0.201130003      0.890720010      0.487630010    
 C3  0.240370005      0.969200015      0.609340012    
 C4  0.152520001      0.886330009      0.534879982    
 C4  0.172150001      0.925580025      0.595749974    
 H2  0.184900001      0.858259976      0.437290013    
 H2  0.256599993       1.65999995E-03  0.659680009    
 H3   9.60799977E-02  0.850250006      0.523630023    
 H3  0.131940007      0.921959996      0.634840012    
 C1  0.606729984      0.618589997       8.05000030E-03
 N1  0.651589990      0.638610005       6.31899983E-02
 N1  0.619369984      0.670830011      0.963259995    
 C2  0.695100009      0.707509995       5.26299998E-02
 C2  0.675480008      0.727140009      0.991760015    
 H1  0.565410018      0.566659987       6.09999988E-04
 H2  0.697399974      0.776950002      0.966880023    
 H2  0.736760020      0.737590015       8.89500007E-02
 C1  0.650489986      0.637799978      0.490839988    
 N1  0.651589990      0.638610005      0.563189983    
 N1  0.619369984      0.670830011      0.463259995    
 C2  0.619279981      0.674229980      0.582449973    
 C2  0.599650025      0.693859994      0.521579981    
 C3  0.680140018      0.604380012      0.446630001    
 H1  0.573189974      0.722440004      0.515739977    
 H1  0.612540007      0.683080018      0.637809992    
 H2  0.735840023      0.642679989      0.434439987    
 H2  0.676890016      0.559189975      0.476909995    
 H2  0.650390029      0.585690022      0.394710004    
 C1  0.203050002      0.407720000      0.384030014    
 N1  0.247630000      0.396869987      0.345519990    
 N1  0.147609994      0.396869987      0.345519990    
 C2  0.218679994      0.378060013      0.278789997    
 C2  0.157749996      0.378060013      0.278789997    
 H1  0.210850000      0.423330009      0.439390004    
 H2  0.121119998      0.366059989      0.236210003    
 H2  0.243300006      0.366059989      0.236210003    
 C1  0.203050002      0.407720000      0.884029984    
 N1  0.247630000      0.396869987      0.845520020    
 N1  0.147609994      0.396869987      0.845520020    
 C2  0.218679994      0.378060013      0.778789997    
 C2  0.157749996      0.378060013      0.778789997    
 H1  0.210850000      0.423330009      0.939390004    
 C3  0.118720002      0.360890001      0.717869997    
 C3  0.240539998      0.360890001      0.717869997    
 C4  0.140579998      0.343719989      0.656949997    
 C4  0.201499999      0.343719989      0.656949997    
 H2   6.83400035E-02  0.360890001      0.717869997    
 H2  0.290919989      0.360890001      0.717869997    
 H3  0.108290002      0.329510003      0.606549978    
 H3  0.219589993      0.329510003      0.606549978    
 C1  0.782980025      0.567579985      0.114739999    
 N1  0.749859989      0.601379991       9.55300033E-02
 N1  0.849889994      0.601379991       9.55300033E-02
 C2  0.798699975      0.659950018       6.22299984E-02
 C2  0.859619975      0.659950018       6.22299984E-02
 H1  0.758679986      0.518999994      0.142370000    
 H2  0.908930004      0.697319984       4.09700014E-02
 H2  0.786759973      0.697319984       4.09700014E-02
 C1  0.782980025      0.567579985      0.614740014    
 N1  0.749859989      0.601379991      0.595529974    
 N1  0.849889994      0.601379991      0.595529974    
 C2  0.798699975      0.659950018      0.562229991    
 C2  0.859619975      0.659950018      0.562229991    
 H1  0.758679986      0.518999994      0.642369986    
 C3  0.916800022      0.713410020      0.531819999    
 C3  0.794979990      0.713410020      0.531819999    
 C4  0.913079977      0.766879976      0.501420021    
 C4  0.852159977      0.766879976      0.501420021    
 H2  0.967180014      0.713410020      0.531819999    
 H2  0.744599998      0.713410020      0.531819999    
 H3  0.960389972      0.811110020      0.476269990    
 H3  0.849089980      0.811110020      0.476269990    
 C1  0.590149999      0.794820011      0.384030014    
 N1  0.601000011      0.850260019      0.345519990    
 N1  0.601000011      0.750240028      0.345519990    
 C2  0.619809985      0.840120018      0.278789997    
 C2  0.619809985      0.779190004      0.278789997    
 H1  0.574540019      0.787020028      0.439390004    
 C3  0.636979997      0.757330000      0.217869997    
 C3  0.636979997      0.879149973      0.217869997    
 C4  0.654150009      0.796370029      0.156949997    
 C4  0.654150009      0.857290030      0.156949997    
 H2  0.636979997      0.706950009      0.217869997    
 H2  0.636979997      0.929530025      0.217869997    
 H3  0.668359995      0.778280020      0.106550001    
 H3  0.668359995      0.889580011      0.106550001    
 C1  0.580959976      0.790229976      0.879790008    
 N1  0.601000011      0.850260019      0.845520020    
 N1  0.601000011      0.750240028      0.845520020    
 C2  0.635739982      0.848079979      0.786140025    
 C2  0.635739982      0.787159979      0.786140025    
 H1  0.552139997      0.775820017      0.929050028    
 H2  0.657899976      0.767610013      0.748250008    
 H2  0.657899976      0.889789999      0.748250008    
 C1  0.216319993      0.781549990      0.354970008    
 N1  0.147609994      0.750240028      0.345519990    
 N1  0.247630000      0.850260019      0.345519990    
 C2  0.134739995      0.802209973      0.329140007    
 C2  0.195659995      0.863129973      0.329140007    
 C3  0.253270000      0.744599998      0.373650014    
 H1  0.205599993      0.914439976      0.318690002    
 H1   8.34299996E-02  0.792270005      0.318690002    
 H2  0.256240010      0.741630018      0.433990002    
 H2  0.224790007      0.690810025      0.350620002    
 H2  0.307060003      0.773079991      0.350620002    
 C1  0.214509994      0.783360004      0.864750028    
 N1  0.147609994      0.750240028      0.845520020    
 N1  0.247630000      0.850260019      0.845520020    
 C2  0.137879997      0.799070001      0.812200010    
 C2  0.198799998      0.859990001      0.812200010    
 H1  0.238800004      0.759069979      0.892390013    
 C3  0.202519998      0.917169988      0.781790018    
 C3   8.07000026E-02  0.795350015      0.781790018    
 C4  0.145339996      0.913450003      0.751370013    
 C4   8.44200030E-02  0.852530003      0.751370013    
 H2  0.252909988      0.967549980      0.781790018    
 H2   3.03199999E-02  0.744960010      0.781790018    
 H3  0.148420006      0.960749984      0.726199985    
 H3   3.71199995E-02  0.849449992      0.726199985    
 C1  0.789849997      0.208020002      0.129789993    
 N1  0.849879980      0.247999996       9.55199972E-02
 N1  0.749859989      0.147980005       9.55199972E-02
 C2  0.847710013      0.211080000       3.61500010E-02
 C2  0.786780000      0.150160000       3.61500010E-02
 H1  0.775439978      0.222430006      0.179049999    
 H2  0.767239988      0.108450003      0.998260021    
 H2  0.889419973      0.230629995      0.998260021    
 C1  0.799409986      0.198459998      0.635649979    
 N1  0.849879980      0.247999996      0.595520020    
 N1  0.749859989      0.147980005      0.595520020    
 C2  0.831139982      0.227650002      0.525990009    
 C2  0.770219982      0.166720003      0.525990009    
 H1  0.798740029      0.199129999      0.693340003    
 H2  0.740109980      0.135580003      0.481620014    
 H2  0.862280011      0.257759988      0.481620014    
 C1  0.433899999      0.216700003      0.104970001    
 N1  0.396490008      0.147980005       9.55300033E-02
 N1  0.396490008      0.247999996       9.55300033E-02
 C2  0.331649989      0.135110006       7.91599974E-02
 C2  0.331649989      0.196030006       7.91599974E-02
 H1  0.487690002      0.243589997      0.118539996    
 C3  0.272460014      0.196889997       6.42300025E-02
 C3  0.272460014       7.50700012E-02   6.42300025E-02
 C4  0.213269994      0.136840001       4.92900014E-02
 C4  0.213269994       7.59200007E-02   4.92900014E-02
 H2  0.272460014      0.247270003       6.42300025E-02
 H2  0.272460014       2.46799998E-02   6.42300025E-02
 H3  0.164299995      0.137549996       3.69299985E-02
 H3  0.164299995       2.62499992E-02   3.69299985E-02
 C1  0.433899999      0.216700003      0.604969978    
 N1  0.396490008      0.147980005      0.595529974    
 N1  0.396490008      0.247999996      0.595529974    
 C2  0.331649989      0.135110006      0.579159975    
 C2  0.331649989      0.196030006      0.579159975    
 C3  0.507809997      0.253650010      0.623619974    
 H1  0.290280014      0.205970004      0.568719983    
 H1  0.290280014       8.38000029E-02  0.568719983    
 H2  0.513750017      0.256619990      0.683960021    
 H2  0.533110023      0.225160003      0.600579977    
 H2  0.533110023      0.307429999      0.600579977    
 C1  0.100220002      0.549860001      0.405730009    
 N1  0.111649998      0.605589986      0.367399991    
 N1  0.111649998      0.505569994      0.367399991    
 C2  0.131479993      0.595950007      0.300989985    
 C2  0.131479993      0.535030007      0.300989985    
 H1   8.37699994E-02  0.541630030      0.460819989    
 H2  0.144130006      0.510730028      0.258610010    
 H2  0.144130006      0.632900000      0.258610010    
 C1   8.33700001E-02  0.541429996      0.894630015    
 N1  0.111649998      0.605589986      0.867399991    
 N1  0.111649998      0.505569994      0.867399991    
 C2  0.160669997      0.610549986      0.820219994    
 C2  0.160669997      0.549619973      0.820219994    
 H1   4.27099988E-02  0.521099985      0.933770001    
 H2  0.191949993      0.534640014      0.790109992    
 H2  0.191949993      0.656809986      0.790109992    
 C1  0.911949992      0.455729991       8.79099965E-02
 N1  0.885839999      0.392659992      0.117399998    
 N1  0.885839999      0.492680013      0.117399998    
 C2  0.840579987      0.389580011      0.168500006    
 C2  0.840579987      0.450500011      0.168500006    
 H1  0.949490011      0.474500000       4.55100015E-02
 H2  0.811710000      0.466690004      0.201110005    
 H2  0.811710000      0.344509989      0.201110005    
 C1  0.922590017      0.461050004      0.605470002    
 N1  0.885839999      0.392659992      0.617399991    
 N1  0.885839999      0.492680013      0.617399991    
 C2  0.822139978      0.380360007      0.638059974    
 C2  0.822139978      0.441280007      0.638059974    
 H1  0.975440025      0.487470001      0.588329971    
 H2  0.781490028      0.451579988      0.651250005    
 H2  0.781490028      0.329409987      0.651250005    
 C1  0.448009998      0.549860001      0.405730009    
 N1  0.392280012      0.505569994      0.367399991    
 N1  0.492300004      0.605589986      0.367399991    
 C2  0.401919991      0.535030007      0.300989985    
 C2  0.462839991      0.595950007      0.300989985    
 C3  0.459309995      0.538559973      0.481420010    
 H1  0.487140000      0.632900000      0.258610010    
 H1  0.364969999      0.510730028      0.258610010    
 H2  0.436010003      0.561860025      0.517719984    
 H2  0.434150010      0.481449991      0.492229998    
 H2  0.516420007      0.563719988      0.492229998    
 C1  0.448009998      0.549860001      0.905730009    
 N1  0.392280012      0.505569994      0.867399991    
 N1  0.492300004      0.605589986      0.867399991    
 C2  0.401919991      0.535030007      0.800989985    
 C2  0.462839991      0.595950007      0.800989985    
 H1  0.456239998      0.541630030      0.960820019    
 C3  0.484239995      0.635450006      0.740360022    
 C3  0.362419993      0.513629973      0.740360022    
 C4  0.444750011      0.614049971      0.679729998    
 C4  0.383819997      0.553120017      0.679729998    
 H2  0.534630001      0.685829997      0.740360022    
 H2  0.312040001      0.463239998      0.740360022    
 H3  0.462449998      0.646719992      0.629580021    
 H3  0.351150006      0.535420001      0.629580021    
 C1  0.455350012      0.912329972      0.337909997    
 N1  0.492300004      0.886219978      0.367399991    
 N1  0.392280012      0.886219978      0.367399991    
 C2  0.450129986      0.840969980      0.418500006    
 C2  0.389209986      0.840969980      0.418500006    
 C3  0.481139988      0.963909984      0.279659986    
 H1  0.344139993      0.812089980      0.451119989    
 H1  0.466320008      0.812089980      0.451119989    
 H2  0.507870018       1.73599999E-02  0.303600013    
 H2  0.518779993      0.956910014      0.245409995    
 H2  0.436500013      0.956910014      0.245409995    
 C1  0.459329993      0.920300007      0.886070013    
 N1  0.492300004      0.886219978      0.867399991    
 N1  0.392280012      0.886219978      0.867399991    
 C2  0.443230003      0.827160001      0.835060000    
 C2  0.382299989      0.827160001      0.835060000    
 H1  0.483830005      0.969290018      0.912899971    
 C3  0.324900001      0.773249984      0.805530012    
 C3  0.446720004      0.773249984      0.805530012    
 C4  0.328390002      0.719330013      0.776000023    
 C4  0.389310002      0.719330013      0.776000023    
 H2  0.274520010      0.773249984      0.805530012    
 H2  0.497099996      0.773249984      0.805530012    
 H3  0.280900002      0.674730003      0.751569986    
 H3  0.392199993      0.674730003      0.751569986    
 C1  0.541059971       8.37400034E-02  0.144630000    
 N1  0.505190015      0.112020001      0.117399998    
 N1  0.605210006      0.112020001      0.117399998    
 C2  0.549250007      0.161039993       7.02200010E-02
 C2  0.610170007      0.161039993       7.02200010E-02
 H1  0.520730019       4.30799983E-02  0.183770001    
 C3  0.662989974      0.205779999       2.71499995E-02
 C3  0.541170001      0.205779999       2.71499995E-02
 C4  0.654919982      0.250530005      0.984080017    
 C4  0.593990028      0.250530005      0.984080017    
 H2  0.713379979      0.205779999       2.71499995E-02
 H2  0.490790009      0.205779999       2.71499995E-02
 H3  0.698620021      0.287550002      0.948450029    
 H3  0.587310016      0.287550002      0.948450029    
 C1  0.549480021      0.100589998      0.655730009    
 N1  0.505190015      0.112020001      0.617399991    
 N1  0.605210006      0.112020001      0.617399991    
 C2  0.534650028      0.131850004      0.550989985    
 C2  0.595570028      0.131850004      0.550989985    
 H1  0.541260004       8.41400027E-02  0.710820019    
 H2  0.632529974      0.144500002      0.508610010    
 H2  0.510349989      0.144500002      0.508610010    
 C1  0.538929999      0.458939999       9.59599987E-02
 N1  0.605210006      0.492680013      0.117399998    
 N1  0.505190015      0.392659992      0.117399998    
 C2  0.613860011      0.444929987      0.154550001    
 C2  0.552940011      0.384009987      0.154550001    
 H1  0.515540004      0.482329994       6.51400015E-02
 H2  0.540310025      0.335390002      0.178259999    
 H2  0.662479997      0.457560003      0.178259999    
 C1  0.542140007      0.455729991      0.587909997    
 N1  0.605210006      0.492680013      0.617399991    
 N1  0.505190015      0.392659992      0.617399991    
 C2  0.608290017      0.450500011      0.668500006    
 C2  0.547370017      0.389580011      0.668500006    
 H1  0.523370028      0.474500000      0.545509994    
 H2  0.531180024      0.344509989      0.701110005    
 H2  0.653360009      0.466690004      0.701110005    
