data_cif

_audit_creation_method             'generated by GULP'

_symmetry_space_group_name_H-M     'P 1'
_symmetry_Int_Tables_number        1
_symmetry_cell_setting             triclinic

_cell_length_a                       40.6640
_cell_length_b                       24.1700
_cell_length_c                       30.8250
_cell_angle_alpha                   90.0000
_cell_angle_beta                   105.2540
_cell_angle_gamma                   90.0000

loop_
_atom_site_label
_atom_site_fract_x
_atom_site_fract_y
_atom_site_fract_z
_atom_site_charge
  Si          0.15235      0.45585      0.12810  0.7000
  Si          0.17420      0.16905      0.06560  0.7000
  Si          0.34730      0.04725      0.10630  0.7000
  Si          0.34765      0.45585      0.03857  0.7000
  Si          0.32580      0.16905      0.10107  0.7000
  Si          0.32610      0.16595      0.20007  0.7000
  Si          0.27445      0.24715      0.21687  0.7000
  Si          0.34765      0.04415      0.20523  0.7000
  Si          0.15270      0.45275      0.22704  0.7000
  Si          0.17420      0.33095      0.23227  0.7000
  Si          0.17390      0.33405      0.13327  0.7000
  Si          0.22555      0.25285      0.11647  0.7000
  Si          0.40270      0.29725      0.06036  0.7000
  Si          0.42420      0.41905      0.06560  0.7000
  Si          0.42390      0.41595      0.29993  0.7000
  Si          0.09730      0.29725      0.10630  0.7000
  Si          0.09765      0.20585      0.03857  0.7000
  Si          0.07610      0.41595      0.20007  0.7000
  Si          0.09730      0.20275      0.27296  0.7000
  Si          0.09765      0.29415      0.20523  0.7000
  Si          0.07610      0.08405      0.03340  0.7000
  Si          0.40270      0.20275      0.22704  0.7000
  Si          0.40235      0.29415      0.29477  0.7000
  Si          0.42420      0.08095      0.23227  0.7000
  Si          0.42390      0.08405      0.13327  0.7000
  Si          0.47555      0.00285      0.11647  0.7000
  Si          0.15235      0.45585      0.46143  0.7000
  Si          0.17390      0.16595      0.63327  0.7000
  Si          0.34730      0.04725      0.43964  0.7000
  Si          0.34765      0.45585      0.37190  0.7000
  Si          0.32610      0.16595      0.53340  0.7000
  Si          0.27445      0.24715      0.55020  0.7000
  Si          0.34730      0.45275      0.60630  0.7000
  Si          0.34765      0.04415      0.53857  0.7000
  Si          0.32580      0.33095      0.60107  0.7000
  Si          0.15235      0.04415      0.62810  0.7000
  Si          0.17420      0.33095      0.56560  0.7000
  Si          0.17390      0.33405      0.46660  0.7000
  Si          0.22555      0.25285      0.44980  0.7000
  Si          0.40270      0.29725      0.39370  0.7000
  Si          0.42420      0.41905      0.39893  0.7000
  Si          0.42390      0.41595      0.63327  0.7000
  Si          0.47555      0.49715      0.61647  0.7000
  Si          0.09730      0.29725      0.43964  0.7000
  Si          0.09765      0.20585      0.37190  0.7000
  Si          0.07610      0.41595      0.53340  0.7000
  Si          0.09730      0.20275      0.60630  0.7000
  Si          0.09765      0.29415      0.53857  0.7000
  Si          0.07610      0.08405      0.36673  0.7000
  Si          0.40235      0.29415      0.62810  0.7000
  Si          0.15270      0.04725      0.72704  0.7000
  Si          0.15235      0.45585      0.79477  0.7000
  Si          0.22555      0.24715      0.94980  0.7000
  Si          0.34765      0.45585      0.70523  0.7000
  Si          0.32580      0.16905      0.76773  0.7000
  Si          0.32610      0.16595      0.86673  0.7000
  Si          0.34730      0.45275      0.93964  0.7000
  Si          0.32580      0.33095      0.93440  0.7000
  Si          0.27445      0.25285      0.71687  0.7000
  Si          0.17420      0.33095      0.89893  0.7000
  Si          0.22555      0.25285      0.78313  0.7000
  Si          0.40270      0.29725      0.72704  0.7000
  Si          0.40235      0.20585      0.79477  0.7000
  Si          0.09730      0.29725      0.77296  0.7000
  Si          0.07580      0.41905      0.76773  0.7000
  Si          0.07610      0.41595      0.86673  0.7000
  Si          0.02445      0.49715      0.88353  0.7000
  Si          0.09730      0.20275      0.93964  0.7000
  Si          0.09765      0.29415      0.87190  0.7000
  Si          0.07580      0.08095      0.93440  0.7000
  Si          0.40270      0.20275      0.89370  0.7000
  Si          0.15270      0.54725      0.06036  0.7000
  Si          0.15235      0.95585      0.12810  0.7000
  Si          0.17420      0.66905      0.06560  0.7000
  Si          0.17390      0.66595      0.29993  0.7000
  Si          0.34730      0.54725      0.10630  0.7000
  Si          0.34765      0.95585      0.03857  0.7000
  Si          0.32580      0.66905      0.10107  0.7000
  Si          0.32610      0.66595      0.20007  0.7000
  Si          0.34765      0.54415      0.20523  0.7000
  Si          0.32580      0.83095      0.26773  0.7000
  Si          0.32610      0.83405      0.03340  0.7000
  Si          0.15270      0.95275      0.22704  0.7000
  Si          0.15235      0.54415      0.29477  0.7000
  Si          0.17420      0.83095      0.23227  0.7000
  Si          0.17390      0.83405      0.13327  0.7000
  Si          0.40270      0.79725      0.06036  0.7000
  Si          0.40235      0.70585      0.12810  0.7000
  Si          0.42420      0.91905      0.06560  0.7000
  Si          0.47555      0.99715      0.28313  0.7000
  Si          0.09765      0.70585      0.03857  0.7000
  Si          0.07580      0.91905      0.10107  0.7000
  Si          0.09730      0.70275      0.27296  0.7000
  Si          0.09765      0.79415      0.20523  0.7000
  Si          0.07580      0.58095      0.26773  0.7000
  Si          0.07610      0.58405      0.03340  0.7000
  Si          0.02445      0.50285      0.05020  0.7000
  Si          0.40235      0.79415      0.29477  0.7000
  Si          0.17420      0.66905      0.39893  0.7000
  Si          0.34730      0.54725      0.43964  0.7000
  Si          0.34765      0.95585      0.37190  0.7000
  Si          0.34730      0.95275      0.60630  0.7000
  Si          0.32580      0.83095      0.60107  0.7000
  Si          0.22555      0.75285      0.44980  0.7000
  Si          0.40270      0.79725      0.39370  0.7000
  Si          0.42390      0.91595      0.63327  0.7000
  Si          0.09730      0.79725      0.43964  0.7000
  Si          0.09765      0.70585      0.37190  0.7000
  Si          0.07610      0.91595      0.53340  0.7000
  Si          0.09730      0.70275      0.60630  0.7000
  Si          0.09765      0.79415      0.53857  0.7000
  Si          0.07610      0.58405      0.36673  0.7000
  Si          0.40270      0.70275      0.56036  0.7000
  Si          0.40235      0.79415      0.62810  0.7000
  Si          0.42420      0.58095      0.56560  0.7000
  Si          0.47555      0.50285      0.44980  0.7000
  Si          0.15235      0.95585      0.79477  0.7000
  Si          0.17420      0.66905      0.73227  0.7000
  Si          0.17390      0.66595      0.96660  0.7000
  Si          0.22555      0.74715      0.94980  0.7000
  Si          0.34765      0.95585      0.70523  0.7000
  Si          0.32580      0.66905      0.76773  0.7000
  Si          0.32610      0.66595      0.86673  0.7000
  Si          0.34730      0.95275      0.93964  0.7000
  Si          0.32580      0.83095      0.93440  0.7000
  Si          0.15270      0.95275      0.89370  0.7000
  Si          0.15235      0.54415      0.96143  0.7000
  Si          0.17420      0.83095      0.89893  0.7000
  Si          0.17390      0.83405      0.79993  0.7000
  Si          0.40270      0.79725      0.72704  0.7000
  Si          0.42420      0.91905      0.73227  0.7000
  Si          0.42390      0.91595      0.96660  0.7000
  Si          0.09730      0.79725      0.77296  0.7000
  Si          0.09765      0.70585      0.70523  0.7000
  Si          0.07580      0.91905      0.76773  0.7000
  Si          0.09765      0.79415      0.87190  0.7000
  Si          0.07580      0.58095      0.93440  0.7000
  Si          0.40270      0.70275      0.89370  0.7000
  Si          0.42420      0.58095      0.89893  0.7000
  Si          0.65270      0.04725      0.06036  0.7000
  Si          0.65235      0.45585      0.12810  0.7000
  Si          0.67420      0.16905      0.06560  0.7000
  Si          0.67390      0.16595      0.29993  0.7000
  Si          0.72555      0.24715      0.28313  0.7000
  Si          0.84730      0.04725      0.10630  0.7000
  Si          0.82580      0.16905      0.10107  0.7000
  Si          0.82610      0.16595      0.20007  0.7000
  Si          0.84765      0.04415      0.20523  0.7000
  Si          0.82580      0.33095      0.26773  0.7000
  Si          0.82610      0.33405      0.03340  0.7000
  Si          0.65270      0.45275      0.22704  0.7000
  Si          0.65235      0.04415      0.29477  0.7000
  Si          0.67420      0.33095      0.23227  0.7000
  Si          0.67390      0.33405      0.13327  0.7000
  Si          0.72555      0.25285      0.11647  0.7000
  Si          0.90235      0.20585      0.12810  0.7000
  Si          0.92420      0.41905      0.06560  0.7000
  Si          0.97555      0.49715      0.28313  0.7000
  Si          0.59730      0.29725      0.10630  0.7000
  Si          0.59765      0.20585      0.03857  0.7000
  Si          0.57610      0.41595      0.20007  0.7000
  Si          0.59730      0.20275      0.27296  0.7000
  Si          0.59765      0.29415      0.20523  0.7000
  Si          0.57610      0.08405      0.03340  0.7000
  Si          0.65235      0.45585      0.46143  0.7000
  Si          0.67390      0.16595      0.63327  0.7000
  Si          0.84730      0.04725      0.43964  0.7000
  Si          0.82610      0.16595      0.53340  0.7000
  Si          0.77445      0.24715      0.55020  0.7000
  Si          0.84730      0.45275      0.60630  0.7000
  Si          0.82580      0.33095      0.60107  0.7000
  Si          0.77445      0.25285      0.38353  0.7000
  Si          0.65235      0.04415      0.62810  0.7000
  Si          0.90235      0.20585      0.46143  0.7000
  Si          0.92420      0.41905      0.39893  0.7000
  Si          0.92390      0.41595      0.63327  0.7000
  Si          0.97555      0.49715      0.61647  0.7000
  Si          0.59765      0.20585      0.37190  0.7000
  Si          0.57610      0.41595      0.53340  0.7000
  Si          0.59730      0.20275      0.60630  0.7000
  Si          0.57580      0.08095      0.60107  0.7000
  Si          0.90270      0.20275      0.56036  0.7000
  Si          0.90235      0.29415      0.62810  0.7000
  Si          0.92420      0.08095      0.56560  0.7000
  Si          0.65235      0.45585      0.79477  0.7000
  Si          0.67420      0.16905      0.73227  0.7000
  Si          0.67390      0.16595      0.96660  0.7000
  Si          0.84730      0.04725      0.77296  0.7000
  Si          0.82580      0.16905      0.76773  0.7000
  Si          0.82610      0.16595      0.86673  0.7000
  Si          0.84730      0.45275      0.93964  0.7000
  Si          0.82580      0.33095      0.93440  0.7000
  Si          0.82610      0.33405      0.70007  0.7000
  Si          0.65270      0.45275      0.89370  0.7000
  Si          0.65235      0.04415      0.96143  0.7000
  Si          0.90270      0.29725      0.72704  0.7000
  Si          0.90235      0.20585      0.79477  0.7000
  Si          0.92420      0.41905      0.73227  0.7000
  Si          0.59730      0.29725      0.77296  0.7000
  Si          0.57580      0.41905      0.76773  0.7000
  Si          0.57610      0.41595      0.86673  0.7000
  Si          0.52445      0.49715      0.88353  0.7000
  Si          0.59730      0.20275      0.93964  0.7000
  Si          0.59765      0.29415      0.87190  0.7000
  Si          0.57610      0.08405      0.70007  0.7000
  Si          0.52445      0.00285      0.71687  0.7000
  Si          0.92420      0.08095      0.89893  0.7000
  Si          0.67420      0.66905      0.06560  0.7000
  Si          0.67390      0.66595      0.29993  0.7000
  Si          0.72555      0.74715      0.28313  0.7000
  Si          0.84730      0.54725      0.10630  0.7000
  Si          0.84765      0.95585      0.03857  0.7000
  Si          0.77445      0.74715      0.21687  0.7000
  Si          0.84730      0.95275      0.27296  0.7000
  Si          0.84765      0.54415      0.20523  0.7000
  Si          0.82580      0.83095      0.26773  0.7000
  Si          0.65270      0.95275      0.22704  0.7000
  Si          0.65235      0.54415      0.29477  0.7000
  Si          0.67420      0.83095      0.23227  0.7000
  Si          0.90270      0.79725      0.06036  0.7000
  Si          0.90235      0.70585      0.12810  0.7000
  Si          0.92420      0.91905      0.06560  0.7000
  Si          0.92390      0.91595      0.29993  0.7000
  Si          0.97555      0.99715      0.28313  0.7000
  Si          0.59730      0.79725      0.10630  0.7000
  Si          0.59765      0.70585      0.03857  0.7000
  Si          0.57580      0.91905      0.10107  0.7000
  Si          0.57610      0.91595      0.20007  0.7000
  Si          0.59730      0.70275      0.27296  0.7000
  Si          0.59765      0.79415      0.20523  0.7000
  Si          0.57580      0.58095      0.26773  0.7000
  Si          0.57610      0.58405      0.03340  0.7000
  Si          0.52445      0.50285      0.05020  0.7000
  Si          0.90270      0.70275      0.22704  0.7000
  Si          0.90235      0.79415      0.29477  0.7000
  Si          0.92420      0.58095      0.23227  0.7000
  Si          0.65235      0.95585      0.46143  0.7000
  Si          0.67420      0.66905      0.39893  0.7000
  Si          0.84730      0.54725      0.43964  0.7000
  Si          0.82580      0.66905      0.43440  0.7000
  Si          0.82610      0.66595      0.53340  0.7000
  Si          0.82610      0.83405      0.36673  0.7000
  Si          0.77445      0.75285      0.38353  0.7000
  Si          0.65270      0.95275      0.56036  0.7000
  Si          0.65235      0.54415      0.62810  0.7000
  Si          0.67390      0.83405      0.46660  0.7000
  Si          0.90270      0.79725      0.39370  0.7000
  Si          0.92420      0.91905      0.39893  0.7000
  Si          0.92390      0.91595      0.63327  0.7000
  Si          0.59765      0.70585      0.37190  0.7000
  Si          0.57610      0.91595      0.53340  0.7000
  Si          0.59730      0.70275      0.60630  0.7000
  Si          0.59765      0.79415      0.53857  0.7000
  Si          0.92390      0.58405      0.46660  0.7000
  Si          0.65270      0.54725      0.72704  0.7000
  Si          0.65235      0.95585      0.79477  0.7000
  Si          0.67420      0.66905      0.73227  0.7000
  Si          0.67390      0.66595      0.96660  0.7000
  Si          0.84730      0.54725      0.77296  0.7000
  Si          0.84765      0.95585      0.70523  0.7000
  Si          0.82580      0.66905      0.76773  0.7000
  Si          0.84730      0.95275      0.93964  0.7000
  Si          0.84765      0.54415      0.87190  0.7000
  Si          0.82580      0.83095      0.93440  0.7000
  Si          0.82610      0.83405      0.70007  0.7000
  Si          0.77445      0.75285      0.71687  0.7000
  Si          0.65270      0.95275      0.89370  0.7000
  Si          0.67420      0.83095      0.89893  0.7000
  Si          0.72555      0.75285      0.78313  0.7000
  Si          0.90270      0.79725      0.72704  0.7000
  Si          0.90235      0.70585      0.79477  0.7000
  Si          0.92420      0.91905      0.73227  0.7000
  Si          0.92390      0.91595      0.96660  0.7000
  Si          0.59730      0.79725      0.77296  0.7000
  Si          0.59765      0.70585      0.70523  0.7000
  Si          0.57580      0.91905      0.76773  0.7000
  Si          0.57610      0.91595      0.86673  0.7000
  Si          0.52445      0.99715      0.88353  0.7000
  Si          0.59765      0.79415      0.87190  0.7000
  Si          0.57580      0.58095      0.93440  0.7000
  Si          0.52445      0.50285      0.71687  0.7000
  Si          0.90235      0.79415      0.96143  0.7000
  Si          0.92420      0.58095      0.89893  0.7000
  Si          0.92390      0.58405      0.79993  0.7000
  Si          0.15270      0.04725      0.06036  0.7000
  Si          0.17390      0.16595      0.29993  0.7000
  Si          0.22555      0.24715      0.28313  0.7000
  Si          0.34730      0.45275      0.27296  0.7000
  Si          0.32580      0.33095      0.26773  0.7000
  Si          0.32610      0.33405      0.03340  0.7000
  Si          0.27445      0.25285      0.05020  0.7000
  Si          0.15235      0.04415      0.29477  0.7000
  Si          0.40235      0.20585      0.12810  0.7000
  Si          0.47555      0.49715      0.28313  0.7000
  Si          0.07580      0.41905      0.10107  0.7000
  Si          0.02445      0.49715      0.21687  0.7000
  Si          0.07580      0.08095      0.26773  0.7000
  Si          0.02445      0.00285      0.05020  0.7000
  Si          0.15270      0.04725      0.39370  0.7000
  Si          0.17420      0.16905      0.39893  0.7000
  Si          0.22555      0.24715      0.61647  0.7000
  Si          0.32580      0.16905      0.43440  0.7000
  Si          0.32610      0.33405      0.36673  0.7000
  Si          0.27445      0.25285      0.38353  0.7000
  Si          0.15270      0.45275      0.56036  0.7000
  Si          0.40235      0.20585      0.46143  0.7000
  Si          0.07580      0.41905      0.43440  0.7000
  Si          0.02445      0.49715      0.55020  0.7000
  Si          0.07580      0.08095      0.60107  0.7000
  Si          0.02445      0.00285      0.38353  0.7000
  Si          0.40270      0.20275      0.56036  0.7000
  Si          0.42420      0.08095      0.56560  0.7000
  Si          0.42390      0.08405      0.46660  0.7000
  Si          0.47555      0.00285      0.44980  0.7000
  Si          0.17420      0.16905      0.73227  0.7000
  Si          0.17390      0.16595      0.96660  0.7000
  Si          0.34730      0.04725      0.77296  0.7000
  Si          0.27445      0.24715      0.88353  0.7000
  Si          0.34765      0.04415      0.87190  0.7000
  Si          0.32610      0.33405      0.70007  0.7000
  Si          0.15270      0.45275      0.89370  0.7000
  Si          0.15235      0.04415      0.96143  0.7000
  Si          0.17390      0.33405      0.79993  0.7000
  Si          0.42420      0.41905      0.73227  0.7000
  Si          0.42390      0.41595      0.96660  0.7000
  Si          0.47555      0.49715      0.94980  0.7000
  Si          0.09765      0.20585      0.70523  0.7000
  Si          0.07610      0.08405      0.70007  0.7000
  Si          0.02445      0.00285      0.71687  0.7000
  Si          0.40235      0.29415      0.96143  0.7000
  Si          0.42420      0.08095      0.89893  0.7000
  Si          0.42390      0.08405      0.79993  0.7000
  Si          0.47555      0.00285      0.78313  0.7000
  Si          0.22555      0.74715      0.28313  0.7000
  Si          0.27445      0.74715      0.21687  0.7000
  Si          0.34730      0.95275      0.27296  0.7000
  Si          0.27445      0.75285      0.05020  0.7000
  Si          0.22555      0.75285      0.11647  0.7000
  Si          0.42390      0.91595      0.29993  0.7000
  Si          0.09730      0.79725      0.10630  0.7000
  Si          0.07610      0.91595      0.20007  0.7000
  Si          0.02445      0.99715      0.21687  0.7000
  Si          0.40270      0.70275      0.22704  0.7000
  Si          0.42420      0.58095      0.23227  0.7000
  Si          0.42390      0.58405      0.13327  0.7000
  Si          0.47555      0.50285      0.11647  0.7000
  Si          0.15270      0.54725      0.39370  0.7000
  Si          0.15235      0.95585      0.46143  0.7000
  Si          0.17390      0.66595      0.63327  0.7000
  Si          0.22555      0.74715      0.61647  0.7000
  Si          0.32580      0.66905      0.43440  0.7000
  Si          0.32610      0.66595      0.53340  0.7000
  Si          0.27445      0.74715      0.55020  0.7000
  Si          0.34765      0.54415      0.53857  0.7000
  Si          0.32610      0.83405      0.36673  0.7000
  Si          0.27445      0.75285      0.38353  0.7000
  Si          0.15270      0.95275      0.56036  0.7000
  Si          0.15235      0.54415      0.62810  0.7000
  Si          0.17420      0.83095      0.56560  0.7000
  Si          0.17390      0.83405      0.46660  0.7000
  Si          0.40235      0.70585      0.46143  0.7000
  Si          0.42420      0.91905      0.39893  0.7000
  Si          0.47555      0.99715      0.61647  0.7000
  Si          0.07580      0.91905      0.43440  0.7000
  Si          0.02445      0.99715      0.55020  0.7000
  Si          0.07580      0.58095      0.60107  0.7000
  Si          0.02445      0.50285      0.38353  0.7000
  Si          0.42390      0.58405      0.46660  0.7000
  Si          0.15270      0.54725      0.72704  0.7000
  Si          0.34730      0.54725      0.77296  0.7000
  Si          0.27445      0.74715      0.88353  0.7000
  Si          0.34765      0.54415      0.87190  0.7000
  Si          0.32610      0.83405      0.70007  0.7000
  Si          0.27445      0.75285      0.71687  0.7000
  Si          0.22555      0.75285      0.78313  0.7000
  Si          0.40235      0.70585      0.79477  0.7000
  Si          0.47555      0.99715      0.94980  0.7000
  Si          0.07610      0.91595      0.86673  0.7000
  Si          0.02445      0.99715      0.88353  0.7000
  Si          0.09730      0.70275      0.93964  0.7000
  Si          0.07610      0.58405      0.70007  0.7000
  Si          0.02445      0.50285      0.71687  0.7000
  Si          0.40235      0.79415      0.96143  0.7000
  Si          0.42390      0.58405      0.79993  0.7000
  Si          0.47555      0.50285      0.78313  0.7000
  Si          0.84765      0.45585      0.03857  0.7000
  Si          0.77445      0.24715      0.21687  0.7000
  Si          0.84730      0.45275      0.27296  0.7000
  Si          0.77445      0.25285      0.05020  0.7000
  Si          0.90270      0.29725      0.06036  0.7000
  Si          0.92390      0.41595      0.29993  0.7000
  Si          0.57580      0.41905      0.10107  0.7000
  Si          0.52445      0.49715      0.21687  0.7000
  Si          0.57580      0.08095      0.26773  0.7000
  Si          0.52445      0.00285      0.05020  0.7000
  Si          0.90270      0.20275      0.22704  0.7000
  Si          0.90235      0.29415      0.29477  0.7000
  Si          0.92420      0.08095      0.23227  0.7000
  Si          0.92390      0.08405      0.13327  0.7000
  Si          0.97555      0.00285      0.11647  0.7000
  Si          0.65270      0.04725      0.39370  0.7000
  Si          0.67420      0.16905      0.39893  0.7000
  Si          0.72555      0.24715      0.61647  0.7000
  Si          0.84765      0.45585      0.37190  0.7000
  Si          0.82580      0.16905      0.43440  0.7000
  Si          0.84765      0.04415      0.53857  0.7000
  Si          0.82610      0.33405      0.36673  0.7000
  Si          0.65270      0.45275      0.56036  0.7000
  Si          0.67420      0.33095      0.56560  0.7000
  Si          0.67390      0.33405      0.46660  0.7000
  Si          0.72555      0.25285      0.44980  0.7000
  Si          0.90270      0.29725      0.39370  0.7000
  Si          0.59730      0.29725      0.43964  0.7000
  Si          0.57580      0.41905      0.43440  0.7000
  Si          0.52445      0.49715      0.55020  0.7000
  Si          0.59765      0.29415      0.53857  0.7000
  Si          0.57610      0.08405      0.36673  0.7000
  Si          0.52445      0.00285      0.38353  0.7000
  Si          0.92390      0.08405      0.46660  0.7000
  Si          0.97555      0.00285      0.44980  0.7000
  Si          0.65270      0.04725      0.72704  0.7000
  Si          0.72555      0.24715      0.94980  0.7000
  Si          0.84765      0.45585      0.70523  0.7000
  Si          0.77445      0.24715      0.88353  0.7000
  Si          0.84765      0.04415      0.87190  0.7000
  Si          0.77445      0.25285      0.71687  0.7000
  Si          0.67420      0.33095      0.89893  0.7000
  Si          0.67390      0.33405      0.79993  0.7000
  Si          0.72555      0.25285      0.78313  0.7000
  Si          0.92390      0.41595      0.96660  0.7000
  Si          0.97555      0.49715      0.94980  0.7000
  Si          0.59765      0.20585      0.70523  0.7000
  Si          0.57580      0.08095      0.93440  0.7000
  Si          0.90270      0.20275      0.89370  0.7000
  Si          0.90235      0.29415      0.96143  0.7000
  Si          0.92390      0.08405      0.79993  0.7000
  Si          0.97555      0.00285      0.78313  0.7000
  Si          0.65270      0.54725      0.06036  0.7000
  Si          0.65235      0.95585      0.12810  0.7000
  Si          0.82580      0.66905      0.10107  0.7000
  Si          0.82610      0.66595      0.20007  0.7000
  Si          0.82610      0.83405      0.03340  0.7000
  Si          0.77445      0.75285      0.05020  0.7000
  Si          0.67390      0.83405      0.13327  0.7000
  Si          0.72555      0.75285      0.11647  0.7000
  Si          0.52445      0.99715      0.21687  0.7000
  Si          0.92390      0.58405      0.13327  0.7000
  Si          0.97555      0.50285      0.11647  0.7000
  Si          0.65270      0.54725      0.39370  0.7000
  Si          0.67390      0.66595      0.63327  0.7000
  Si          0.72555      0.74715      0.61647  0.7000
  Si          0.84765      0.95585      0.37190  0.7000
  Si          0.77445      0.74715      0.55020  0.7000
  Si          0.84730      0.95275      0.60630  0.7000
  Si          0.84765      0.54415      0.53857  0.7000
  Si          0.82580      0.83095      0.60107  0.7000
  Si          0.67420      0.83095      0.56560  0.7000
  Si          0.72555      0.75285      0.44980  0.7000
  Si          0.90235      0.70585      0.46143  0.7000
  Si          0.97555      0.99715      0.61647  0.7000
  Si          0.59730      0.79725      0.43964  0.7000
  Si          0.57580      0.91905      0.43440  0.7000
  Si          0.52445      0.99715      0.55020  0.7000
  Si          0.57580      0.58095      0.60107  0.7000
  Si          0.57610      0.58405      0.36673  0.7000
  Si          0.52445      0.50285      0.38353  0.7000
  Si          0.90270      0.70275      0.56036  0.7000
  Si          0.90235      0.79415      0.62810  0.7000
  Si          0.92420      0.58095      0.56560  0.7000
  Si          0.97555      0.50285      0.44980  0.7000
  Si          0.72555      0.74715      0.94980  0.7000
  Si          0.82610      0.66595      0.86673  0.7000
  Si          0.77445      0.74715      0.88353  0.7000
  Si          0.65235      0.54415      0.96143  0.7000
  Si          0.67390      0.83405      0.79993  0.7000
  Si          0.97555      0.99715      0.94980  0.7000
  Si          0.59730      0.70275      0.93964  0.7000
  Si          0.57610      0.58405      0.70007  0.7000
  Si          0.90270      0.70275      0.89370  0.7000
  Si          0.97555      0.50285      0.78313  0.7000
  O           0.17445      0.40040      0.12870 -0.3500
  O           0.11310      0.44305      0.10313 -0.3500
  O           0.11345      0.06090      0.05783 -0.3500
  O           0.20225      0.19810      0.10593 -0.3500
  O           0.17475      0.10310      0.07297 -0.3500
  O           0.18340      0.18260      0.01900 -0.3500
  O           0.25000      0.25000      0.00000 -0.3500
  O           0.20155      0.19320      0.27737 -0.3500
  O           0.15565      0.02465      0.01240 -0.3500
  O           0.25000      0.24285      0.25000 -0.3500
  O           0.16605      0.00245      0.09977 -0.3500
  O           0.32555      0.40040      0.03796 -0.3500
  O           0.38690      0.44305      0.06353 -0.3500
  O           0.38655      0.06090      0.10883 -0.3500
  O           0.29775      0.19810      0.06073 -0.3500
  O           0.32525      0.10310      0.09370 -0.3500
  O           0.31660      0.18260      0.14767 -0.3500
  O           0.25000      0.25000      0.16666 -0.3500
  O           0.29845      0.19320      0.22263 -0.3500
  O           0.34435      0.02465      0.15427 -0.3500
  O           0.33395      0.00245      0.06690 -0.3500
  O           0.32555      0.09960      0.20464 -0.3500
  O           0.38690      0.05695      0.23020 -0.3500
  O           0.38655      0.43910      0.27550 -0.3500
  O           0.29775      0.30190      0.22740 -0.3500
  O           0.32525      0.39690      0.26037 -0.3500
  O           0.31660      0.31740      0.31433 -0.3500
  O           0.29845      0.30680      0.05597 -0.3500
  O           0.34435      0.47535      0.32093 -0.3500
  O           0.25000      0.25715      0.08334 -0.3500
  O           0.33395      0.49755      0.23357 -0.3500
  O           0.17445      0.09960      0.29536 -0.3500
  O           0.11310      0.05695      0.26980 -0.3500
  O           0.11345      0.43910      0.22450 -0.3500
  O           0.20225      0.30190      0.27260 -0.3500
  O           0.17475      0.39690      0.23963 -0.3500
  O           0.18340      0.31740      0.18567 -0.3500
  O           0.20155      0.30680      0.11070 -0.3500
  O           0.15565      0.47535      0.17907 -0.3500
  O           0.16605      0.49755      0.26643 -0.3500
  O           0.42445      0.15040      0.12870 -0.3500
  O           0.36310      0.19305      0.10313 -0.3500
  O           0.36345      0.31090      0.05783 -0.3500
  O           0.45225      0.44810      0.10593 -0.3500
  O           0.42475      0.35310      0.07297 -0.3500
  O           0.43340      0.43260      0.01900 -0.3500
  O           0.00000      0.00000      0.00000 -0.3500
  O           0.45155      0.44320      0.27737 -0.3500
  O           0.40565      0.27465      0.01240 -0.3500
  O           0.00000      0.49285      0.25000 -0.3500
  O           0.41605      0.25245      0.09977 -0.3500
  O           0.07555      0.15040      0.03796 -0.3500
  O           0.13690      0.19305      0.06353 -0.3500
  O           0.13655      0.31090      0.10883 -0.3500
  O           0.04775      0.44810      0.06073 -0.3500
  O           0.07525      0.35310      0.09370 -0.3500
  O           0.06660      0.43260      0.14767 -0.3500
  O           0.00000      0.00000      0.16666 -0.3500
  O           0.04845      0.44320      0.22263 -0.3500
  O           0.09435      0.27465      0.15427 -0.3500
  O           0.08395      0.25245      0.06690 -0.3500
  O           0.07555      0.34960      0.20464 -0.3500
  O           0.13690      0.30695      0.23020 -0.3500
  O           0.13655      0.18910      0.27550 -0.3500
  O           0.04775      0.05190      0.22740 -0.3500
  O           0.07525      0.14690      0.26037 -0.3500
  O           0.06660      0.06740      0.31433 -0.3500
  O           0.04845      0.05680      0.05597 -0.3500
  O           0.09435      0.22535      0.32093 -0.3500
  O           0.00000      0.00715      0.08334 -0.3500
  O           0.08395      0.24755      0.23357 -0.3500
  O           0.42445      0.34960      0.29536 -0.3500
  O           0.36310      0.30695      0.26980 -0.3500
  O           0.36345      0.18910      0.22450 -0.3500
  O           0.45225      0.05190      0.27260 -0.3500
  O           0.42475      0.14690      0.23963 -0.3500
  O           0.43340      0.06740      0.18567 -0.3500
  O           0.45155      0.05680      0.11070 -0.3500
  O           0.40565      0.22535      0.17907 -0.3500
  O           0.41605      0.24755      0.26643 -0.3500
  O           0.17445      0.40040      0.46204 -0.3500
  O           0.11310      0.44305      0.43647 -0.3500
  O           0.11345      0.06090      0.39117 -0.3500
  O           0.20225      0.19810      0.43927 -0.3500
  O           0.17475      0.10310      0.40630 -0.3500
  O           0.18340      0.18260      0.35233 -0.3500
  O           0.25000      0.25000      0.33334 -0.3500
  O           0.20155      0.19320      0.61070 -0.3500
  O           0.15565      0.02465      0.34573 -0.3500
  O           0.25000      0.24285      0.58334 -0.3500
  O           0.16605      0.00245      0.43310 -0.3500
  O           0.32555      0.40040      0.37130 -0.3500
  O           0.38690      0.44305      0.39687 -0.3500
  O           0.38655      0.06090      0.44217 -0.3500
  O           0.29775      0.19810      0.39407 -0.3500
  O           0.32525      0.10310      0.42703 -0.3500
  O           0.31660      0.18260      0.48100 -0.3500
  O           0.25000      0.25000      0.50000 -0.3500
  O           0.29845      0.19320      0.55597 -0.3500
  O           0.34435      0.02465      0.48760 -0.3500
  O           0.33395      0.00245      0.40023 -0.3500
  O           0.32555      0.09960      0.53796 -0.3500
  O           0.38690      0.05695      0.56353 -0.3500
  O           0.38655      0.43910      0.60883 -0.3500
  O           0.29775      0.30190      0.56073 -0.3500
  O           0.32525      0.39690      0.59370 -0.3500
  O           0.31660      0.31740      0.64767 -0.3500
  O           0.29845      0.30680      0.38930 -0.3500
  O           0.34435      0.47535      0.65427 -0.3500
  O           0.25000      0.25715      0.41666 -0.3500
  O           0.33395      0.49755      0.56690 -0.3500
  O           0.17445      0.09960      0.62870 -0.3500
  O           0.11310      0.05695      0.60313 -0.3500
  O           0.11345      0.43910      0.55783 -0.3500
  O           0.20225      0.30190      0.60593 -0.3500
  O           0.17475      0.39690      0.57297 -0.3500
  O           0.18340      0.31740      0.51900 -0.3500
  O           0.20155      0.30680      0.44403 -0.3500
  O           0.15565      0.47535      0.51240 -0.3500
  O           0.16605      0.49755      0.59977 -0.3500
  O           0.42445      0.15040      0.46204 -0.3500
  O           0.36310      0.19305      0.43647 -0.3500
  O           0.36345      0.31090      0.39117 -0.3500
  O           0.45225      0.44810      0.43927 -0.3500
  O           0.42475      0.35310      0.40630 -0.3500
  O           0.43340      0.43260      0.35233 -0.3500
  O           0.00000      0.00000      0.33334 -0.3500
  O           0.45155      0.44320      0.61070 -0.3500
  O           0.40565      0.27465      0.34573 -0.3500
  O           0.00000      0.49285      0.58334 -0.3500
  O           0.41605      0.25245      0.43310 -0.3500
  O           0.07555      0.15040      0.37130 -0.3500
  O           0.13690      0.19305      0.39687 -0.3500
  O           0.13655      0.31090      0.44217 -0.3500
  O           0.04775      0.44810      0.39407 -0.3500
  O           0.07525      0.35310      0.42703 -0.3500
  O           0.06660      0.43260      0.48100 -0.3500
  O           0.00000      0.00000      0.50000 -0.3500
  O           0.04845      0.44320      0.55597 -0.3500
  O           0.09435      0.27465      0.48760 -0.3500
  O           0.08395      0.25245      0.40023 -0.3500
  O           0.07555      0.34960      0.53796 -0.3500
  O           0.13690      0.30695      0.56353 -0.3500
  O           0.13655      0.18910      0.60883 -0.3500
  O           0.04775      0.05190      0.56073 -0.3500
  O           0.07525      0.14690      0.59370 -0.3500
  O           0.06660      0.06740      0.64767 -0.3500
  O           0.04845      0.05680      0.38930 -0.3500
  O           0.09435      0.22535      0.65427 -0.3500
  O           0.00000      0.00715      0.41666 -0.3500
  O           0.08395      0.24755      0.56690 -0.3500
  O           0.42445      0.34960      0.62870 -0.3500
  O           0.36310      0.30695      0.60313 -0.3500
  O           0.36345      0.18910      0.55783 -0.3500
  O           0.45225      0.05190      0.60593 -0.3500
  O           0.42475      0.14690      0.57297 -0.3500
  O           0.43340      0.06740      0.51900 -0.3500
  O           0.45155      0.05680      0.44403 -0.3500
  O           0.40565      0.22535      0.51240 -0.3500
  O           0.41605      0.24755      0.59977 -0.3500
  O           0.17445      0.40040      0.79536 -0.3500
  O           0.11310      0.44305      0.76980 -0.3500
  O           0.11345      0.06090      0.72450 -0.3500
  O           0.20225      0.19810      0.77260 -0.3500
  O           0.17475      0.10310      0.73963 -0.3500
  O           0.18340      0.18260      0.68567 -0.3500
  O           0.25000      0.25000      0.66666 -0.3500
  O           0.20155      0.19320      0.94403 -0.3500
  O           0.15565      0.02465      0.67907 -0.3500
  O           0.25000      0.24285      0.91666 -0.3500
  O           0.16605      0.00245      0.76643 -0.3500
  O           0.32555      0.40040      0.70464 -0.3500
  O           0.38690      0.44305      0.73020 -0.3500
  O           0.38655      0.06090      0.77550 -0.3500
  O           0.29775      0.19810      0.72740 -0.3500
  O           0.32525      0.10310      0.76037 -0.3500
  O           0.31660      0.18260      0.81433 -0.3500
  O           0.25000      0.25000      0.83334 -0.3500
  O           0.29845      0.19320      0.88930 -0.3500
  O           0.34435      0.02465      0.82093 -0.3500
  O           0.33395      0.00245      0.73357 -0.3500
  O           0.32555      0.09960      0.87130 -0.3500
  O           0.38690      0.05695      0.89687 -0.3500
  O           0.38655      0.43910      0.94217 -0.3500
  O           0.29775      0.30190      0.89407 -0.3500
  O           0.32525      0.39690      0.92703 -0.3500
  O           0.31660      0.31740      0.98100 -0.3500
  O           0.29845      0.30680      0.72263 -0.3500
  O           0.34435      0.47535      0.98760 -0.3500
  O           0.25000      0.25715      0.75000 -0.3500
  O           0.33395      0.49755      0.90023 -0.3500
  O           0.17445      0.09960      0.96204 -0.3500
  O           0.11310      0.05695      0.93647 -0.3500
  O           0.11345      0.43910      0.89117 -0.3500
  O           0.20225      0.30190      0.93927 -0.3500
  O           0.17475      0.39690      0.90630 -0.3500
  O           0.18340      0.31740      0.85233 -0.3500
  O           0.20155      0.30680      0.77737 -0.3500
  O           0.15565      0.47535      0.84573 -0.3500
  O           0.16605      0.49755      0.93310 -0.3500
  O           0.42445      0.15040      0.79536 -0.3500
  O           0.36310      0.19305      0.76980 -0.3500
  O           0.36345      0.31090      0.72450 -0.3500
  O           0.45225      0.44810      0.77260 -0.3500
  O           0.42475      0.35310      0.73963 -0.3500
  O           0.43340      0.43260      0.68567 -0.3500
  O           0.00000      0.00000      0.66666 -0.3500
  O           0.45155      0.44320      0.94403 -0.3500
  O           0.40565      0.27465      0.67907 -0.3500
  O           0.00000      0.49285      0.91666 -0.3500
  O           0.41605      0.25245      0.76643 -0.3500
  O           0.07555      0.15040      0.70464 -0.3500
  O           0.13690      0.19305      0.73020 -0.3500
  O           0.13655      0.31090      0.77550 -0.3500
  O           0.04775      0.44810      0.72740 -0.3500
  O           0.07525      0.35310      0.76037 -0.3500
  O           0.06660      0.43260      0.81433 -0.3500
  O           0.00000      0.00000      0.83334 -0.3500
  O           0.04845      0.44320      0.88930 -0.3500
  O           0.09435      0.27465      0.82093 -0.3500
  O           0.08395      0.25245      0.73357 -0.3500
  O           0.07555      0.34960      0.87130 -0.3500
  O           0.13690      0.30695      0.89687 -0.3500
  O           0.13655      0.18910      0.94217 -0.3500
  O           0.04775      0.05190      0.89407 -0.3500
  O           0.07525      0.14690      0.92703 -0.3500
  O           0.06660      0.06740      0.98100 -0.3500
  O           0.04845      0.05680      0.72263 -0.3500
  O           0.09435      0.22535      0.98760 -0.3500
  O           0.00000      0.00715      0.75000 -0.3500
  O           0.08395      0.24755      0.90023 -0.3500
  O           0.42445      0.34960      0.96204 -0.3500
  O           0.36310      0.30695      0.93647 -0.3500
  O           0.36345      0.18910      0.89117 -0.3500
  O           0.45225      0.05190      0.93927 -0.3500
  O           0.42475      0.14690      0.90630 -0.3500
  O           0.43340      0.06740      0.85233 -0.3500
  O           0.45155      0.05680      0.77737 -0.3500
  O           0.40565      0.22535      0.84573 -0.3500
  O           0.41605      0.24755      0.93310 -0.3500
  O           0.17445      0.90040      0.12870 -0.3500
  O           0.11310      0.94305      0.10313 -0.3500
  O           0.11345      0.56090      0.05783 -0.3500
  O           0.20225      0.69810      0.10593 -0.3500
  O           0.17475      0.60310      0.07297 -0.3500
  O           0.18340      0.68260      0.01900 -0.3500
  O           0.25000      0.75000      0.00000 -0.3500
  O           0.20155      0.69320      0.27737 -0.3500
  O           0.15565      0.52465      0.01240 -0.3500
  O           0.25000      0.74285      0.25000 -0.3500
  O           0.16605      0.50245      0.09977 -0.3500
  O           0.32555      0.90040      0.03796 -0.3500
  O           0.38690      0.94305      0.06353 -0.3500
  O           0.38655      0.56090      0.10883 -0.3500
  O           0.29775      0.69810      0.06073 -0.3500
  O           0.32525      0.60310      0.09370 -0.3500
  O           0.31660      0.68260      0.14767 -0.3500
  O           0.25000      0.75000      0.16666 -0.3500
  O           0.29845      0.69320      0.22263 -0.3500
  O           0.34435      0.52465      0.15427 -0.3500
  O           0.33395      0.50245      0.06690 -0.3500
  O           0.32555      0.59960      0.20464 -0.3500
  O           0.38690      0.55695      0.23020 -0.3500
  O           0.38655      0.93910      0.27550 -0.3500
  O           0.29775      0.80190      0.22740 -0.3500
  O           0.32525      0.89690      0.26037 -0.3500
  O           0.31660      0.81740      0.31433 -0.3500
  O           0.29845      0.80680      0.05597 -0.3500
  O           0.34435      0.97535      0.32093 -0.3500
  O           0.25000      0.75715      0.08334 -0.3500
  O           0.33395      0.99755      0.23357 -0.3500
  O           0.17445      0.59960      0.29536 -0.3500
  O           0.11310      0.55695      0.26980 -0.3500
  O           0.11345      0.93910      0.22450 -0.3500
  O           0.20225      0.80190      0.27260 -0.3500
  O           0.17475      0.89690      0.23963 -0.3500
  O           0.18340      0.81740      0.18567 -0.3500
  O           0.20155      0.80680      0.11070 -0.3500
  O           0.15565      0.97535      0.17907 -0.3500
  O           0.16605      0.99755      0.26643 -0.3500
  O           0.42445      0.65040      0.12870 -0.3500
  O           0.36310      0.69305      0.10313 -0.3500
  O           0.36345      0.81090      0.05783 -0.3500
  O           0.45225      0.94810      0.10593 -0.3500
  O           0.42475      0.85310      0.07297 -0.3500
  O           0.43340      0.93260      0.01900 -0.3500
  O           0.00000      0.50000      0.00000 -0.3500
  O           0.45155      0.94320      0.27737 -0.3500
  O           0.40565      0.77465      0.01240 -0.3500
  O           0.00000      0.99285      0.25000 -0.3500
  O           0.41605      0.75245      0.09977 -0.3500
  O           0.07555      0.65040      0.03796 -0.3500
  O           0.13690      0.69305      0.06353 -0.3500
  O           0.13655      0.81090      0.10883 -0.3500
  O           0.04775      0.94810      0.06073 -0.3500
  O           0.07525      0.85310      0.09370 -0.3500
  O           0.06660      0.93260      0.14767 -0.3500
  O           0.00000      0.50000      0.16666 -0.3500
  O           0.04845      0.94320      0.22263 -0.3500
  O           0.09435      0.77465      0.15427 -0.3500
  O           0.08395      0.75245      0.06690 -0.3500
  O           0.07555      0.84960      0.20464 -0.3500
  O           0.13690      0.80695      0.23020 -0.3500
  O           0.13655      0.68910      0.27550 -0.3500
  O           0.04775      0.55190      0.22740 -0.3500
  O           0.07525      0.64690      0.26037 -0.3500
  O           0.06660      0.56740      0.31433 -0.3500
  O           0.04845      0.55680      0.05597 -0.3500
  O           0.09435      0.72535      0.32093 -0.3500
  O           0.00000      0.50715      0.08334 -0.3500
  O           0.08395      0.74755      0.23357 -0.3500
  O           0.42445      0.84960      0.29536 -0.3500
  O           0.36310      0.80695      0.26980 -0.3500
  O           0.36345      0.68910      0.22450 -0.3500
  O           0.45225      0.55190      0.27260 -0.3500
  O           0.42475      0.64690      0.23963 -0.3500
  O           0.43340      0.56740      0.18567 -0.3500
  O           0.45155      0.55680      0.11070 -0.3500
  O           0.40565      0.72535      0.17907 -0.3500
  O           0.41605      0.74755      0.26643 -0.3500
  O           0.17445      0.90040      0.46204 -0.3500
  O           0.11310      0.94305      0.43647 -0.3500
  O           0.11345      0.56090      0.39117 -0.3500
  O           0.20225      0.69810      0.43927 -0.3500
  O           0.17475      0.60310      0.40630 -0.3500
  O           0.18340      0.68260      0.35233 -0.3500
  O           0.25000      0.75000      0.33334 -0.3500
  O           0.20155      0.69320      0.61070 -0.3500
  O           0.15565      0.52465      0.34573 -0.3500
  O           0.25000      0.74285      0.58334 -0.3500
  O           0.16605      0.50245      0.43310 -0.3500
  O           0.32555      0.90040      0.37130 -0.3500
  O           0.38690      0.94305      0.39687 -0.3500
  O           0.38655      0.56090      0.44217 -0.3500
  O           0.29775      0.69810      0.39407 -0.3500
  O           0.32525      0.60310      0.42703 -0.3500
  O           0.31660      0.68260      0.48100 -0.3500
  O           0.25000      0.75000      0.50000 -0.3500
  O           0.29845      0.69320      0.55597 -0.3500
  O           0.34435      0.52465      0.48760 -0.3500
  O           0.33395      0.50245      0.40023 -0.3500
  O           0.32555      0.59960      0.53796 -0.3500
  O           0.38690      0.55695      0.56353 -0.3500
  O           0.38655      0.93910      0.60883 -0.3500
  O           0.29775      0.80190      0.56073 -0.3500
  O           0.32525      0.89690      0.59370 -0.3500
  O           0.31660      0.81740      0.64767 -0.3500
  O           0.29845      0.80680      0.38930 -0.3500
  O           0.34435      0.97535      0.65427 -0.3500
  O           0.25000      0.75715      0.41666 -0.3500
  O           0.33395      0.99755      0.56690 -0.3500
  O           0.17445      0.59960      0.62870 -0.3500
  O           0.11310      0.55695      0.60313 -0.3500
  O           0.11345      0.93910      0.55783 -0.3500
  O           0.20225      0.80190      0.60593 -0.3500
  O           0.17475      0.89690      0.57297 -0.3500
  O           0.18340      0.81740      0.51900 -0.3500
  O           0.20155      0.80680      0.44403 -0.3500
  O           0.15565      0.97535      0.51240 -0.3500
  O           0.16605      0.99755      0.59977 -0.3500
  O           0.42445      0.65040      0.46204 -0.3500
  O           0.36310      0.69305      0.43647 -0.3500
  O           0.36345      0.81090      0.39117 -0.3500
  O           0.45225      0.94810      0.43927 -0.3500
  O           0.42475      0.85310      0.40630 -0.3500
  O           0.43340      0.93260      0.35233 -0.3500
  O           0.00000      0.50000      0.33334 -0.3500
  O           0.45155      0.94320      0.61070 -0.3500
  O           0.40565      0.77465      0.34573 -0.3500
  O           0.00000      0.99285      0.58334 -0.3500
  O           0.41605      0.75245      0.43310 -0.3500
  O           0.07555      0.65040      0.37130 -0.3500
  O           0.13690      0.69305      0.39687 -0.3500
  O           0.13655      0.81090      0.44217 -0.3500
  O           0.04775      0.94810      0.39407 -0.3500
  O           0.07525      0.85310      0.42703 -0.3500
  O           0.06660      0.93260      0.48100 -0.3500
  O           0.00000      0.50000      0.50000 -0.3500
  O           0.04845      0.94320      0.55597 -0.3500
  O           0.09435      0.77465      0.48760 -0.3500
  O           0.08395      0.75245      0.40023 -0.3500
  O           0.07555      0.84960      0.53796 -0.3500
  O           0.13690      0.80695      0.56353 -0.3500
  O           0.13655      0.68910      0.60883 -0.3500
  O           0.04775      0.55190      0.56073 -0.3500
  O           0.07525      0.64690      0.59370 -0.3500
  O           0.06660      0.56740      0.64767 -0.3500
  O           0.04845      0.55680      0.38930 -0.3500
  O           0.09435      0.72535      0.65427 -0.3500
  O           0.00000      0.50715      0.41666 -0.3500
  O           0.08395      0.74755      0.56690 -0.3500
  O           0.42445      0.84960      0.62870 -0.3500
  O           0.36310      0.80695      0.60313 -0.3500
  O           0.36345      0.68910      0.55783 -0.3500
  O           0.45225      0.55190      0.60593 -0.3500
  O           0.42475      0.64690      0.57297 -0.3500
  O           0.43340      0.56740      0.51900 -0.3500
  O           0.45155      0.55680      0.44403 -0.3500
  O           0.40565      0.72535      0.51240 -0.3500
  O           0.41605      0.74755      0.59977 -0.3500
  O           0.17445      0.90040      0.79536 -0.3500
  O           0.11310      0.94305      0.76980 -0.3500
  O           0.11345      0.56090      0.72450 -0.3500
  O           0.20225      0.69810      0.77260 -0.3500
  O           0.17475      0.60310      0.73963 -0.3500
  O           0.18340      0.68260      0.68567 -0.3500
  O           0.25000      0.75000      0.66666 -0.3500
  O           0.20155      0.69320      0.94403 -0.3500
  O           0.15565      0.52465      0.67907 -0.3500
  O           0.25000      0.74285      0.91666 -0.3500
  O           0.16605      0.50245      0.76643 -0.3500
  O           0.32555      0.90040      0.70464 -0.3500
  O           0.38690      0.94305      0.73020 -0.3500
  O           0.38655      0.56090      0.77550 -0.3500
  O           0.29775      0.69810      0.72740 -0.3500
  O           0.32525      0.60310      0.76037 -0.3500
  O           0.31660      0.68260      0.81433 -0.3500
  O           0.25000      0.75000      0.83334 -0.3500
  O           0.29845      0.69320      0.88930 -0.3500
  O           0.34435      0.52465      0.82093 -0.3500
  O           0.33395      0.50245      0.73357 -0.3500
  O           0.32555      0.59960      0.87130 -0.3500
  O           0.38690      0.55695      0.89687 -0.3500
  O           0.38655      0.93910      0.94217 -0.3500
  O           0.29775      0.80190      0.89407 -0.3500
  O           0.32525      0.89690      0.92703 -0.3500
  O           0.31660      0.81740      0.98100 -0.3500
  O           0.29845      0.80680      0.72263 -0.3500
  O           0.34435      0.97535      0.98760 -0.3500
  O           0.25000      0.75715      0.75000 -0.3500
  O           0.33395      0.99755      0.90023 -0.3500
  O           0.17445      0.59960      0.96204 -0.3500
  O           0.11310      0.55695      0.93647 -0.3500
  O           0.11345      0.93910      0.89117 -0.3500
  O           0.20225      0.80190      0.93927 -0.3500
  O           0.17475      0.89690      0.90630 -0.3500
  O           0.18340      0.81740      0.85233 -0.3500
  O           0.20155      0.80680      0.77737 -0.3500
  O           0.15565      0.97535      0.84573 -0.3500
  O           0.16605      0.99755      0.93310 -0.3500
  O           0.42445      0.65040      0.79536 -0.3500
  O           0.36310      0.69305      0.76980 -0.3500
  O           0.36345      0.81090      0.72450 -0.3500
  O           0.45225      0.94810      0.77260 -0.3500
  O           0.42475      0.85310      0.73963 -0.3500
  O           0.43340      0.93260      0.68567 -0.3500
  O           0.00000      0.50000      0.66666 -0.3500
  O           0.45155      0.94320      0.94403 -0.3500
  O           0.40565      0.77465      0.67907 -0.3500
  O           0.00000      0.99285      0.91666 -0.3500
  O           0.41605      0.75245      0.76643 -0.3500
  O           0.07555      0.65040      0.70464 -0.3500
  O           0.13690      0.69305      0.73020 -0.3500
  O           0.13655      0.81090      0.77550 -0.3500
  O           0.04775      0.94810      0.72740 -0.3500
  O           0.07525      0.85310      0.76037 -0.3500
  O           0.06660      0.93260      0.81433 -0.3500
  O           0.00000      0.50000      0.83334 -0.3500
  O           0.04845      0.94320      0.88930 -0.3500
  O           0.09435      0.77465      0.82093 -0.3500
  O           0.08395      0.75245      0.73357 -0.3500
  O           0.07555      0.84960      0.87130 -0.3500
  O           0.13690      0.80695      0.89687 -0.3500
  O           0.13655      0.68910      0.94217 -0.3500
  O           0.04775      0.55190      0.89407 -0.3500
  O           0.07525      0.64690      0.92703 -0.3500
  O           0.06660      0.56740      0.98100 -0.3500
  O           0.04845      0.55680      0.72263 -0.3500
  O           0.09435      0.72535      0.98760 -0.3500
  O           0.00000      0.50715      0.75000 -0.3500
  O           0.08395      0.74755      0.90023 -0.3500
  O           0.42445      0.84960      0.96204 -0.3500
  O           0.36310      0.80695      0.93647 -0.3500
  O           0.36345      0.68910      0.89117 -0.3500
  O           0.45225      0.55190      0.93927 -0.3500
  O           0.42475      0.64690      0.90630 -0.3500
  O           0.43340      0.56740      0.85233 -0.3500
  O           0.45155      0.55680      0.77737 -0.3500
  O           0.40565      0.72535      0.84573 -0.3500
  O           0.41605      0.74755      0.93310 -0.3500
  O           0.67445      0.40040      0.12870 -0.3500
  O           0.61310      0.44305      0.10313 -0.3500
  O           0.61345      0.06090      0.05783 -0.3500
  O           0.70225      0.19810      0.10593 -0.3500
  O           0.67475      0.10310      0.07297 -0.3500
  O           0.68340      0.18260      0.01900 -0.3500
  O           0.75000      0.25000      0.00000 -0.3500
  O           0.70155      0.19320      0.27737 -0.3500
  O           0.65565      0.02465      0.01240 -0.3500
  O           0.75000      0.24285      0.25000 -0.3500
  O           0.66605      0.00245      0.09977 -0.3500
  O           0.82555      0.40040      0.03796 -0.3500
  O           0.88690      0.44305      0.06353 -0.3500
  O           0.88655      0.06090      0.10883 -0.3500
  O           0.79775      0.19810      0.06073 -0.3500
  O           0.82525      0.10310      0.09370 -0.3500
  O           0.81660      0.18260      0.14767 -0.3500
  O           0.75000      0.25000      0.16666 -0.3500
  O           0.79845      0.19320      0.22263 -0.3500
  O           0.84435      0.02465      0.15427 -0.3500
  O           0.83395      0.00245      0.06690 -0.3500
  O           0.82555      0.09960      0.20464 -0.3500
  O           0.88690      0.05695      0.23020 -0.3500
  O           0.88655      0.43910      0.27550 -0.3500
  O           0.79775      0.30190      0.22740 -0.3500
  O           0.82525      0.39690      0.26037 -0.3500
  O           0.81660      0.31740      0.31433 -0.3500
  O           0.79845      0.30680      0.05597 -0.3500
  O           0.84435      0.47535      0.32093 -0.3500
  O           0.75000      0.25715      0.08334 -0.3500
  O           0.83395      0.49755      0.23357 -0.3500
  O           0.67445      0.09960      0.29536 -0.3500
  O           0.61310      0.05695      0.26980 -0.3500
  O           0.61345      0.43910      0.22450 -0.3500
  O           0.70225      0.30190      0.27260 -0.3500
  O           0.67475      0.39690      0.23963 -0.3500
  O           0.68340      0.31740      0.18567 -0.3500
  O           0.70155      0.30680      0.11070 -0.3500
  O           0.65565      0.47535      0.17907 -0.3500
  O           0.66605      0.49755      0.26643 -0.3500
  O           0.92445      0.15040      0.12870 -0.3500
  O           0.86310      0.19305      0.10313 -0.3500
  O           0.86345      0.31090      0.05783 -0.3500
  O           0.95225      0.44810      0.10593 -0.3500
  O           0.92475      0.35310      0.07297 -0.3500
  O           0.93340      0.43260      0.01900 -0.3500
  O           0.50000      0.00000      0.00000 -0.3500
  O           0.95155      0.44320      0.27737 -0.3500
  O           0.90565      0.27465      0.01240 -0.3500
  O           0.50000      0.49285      0.25000 -0.3500
  O           0.91605      0.25245      0.09977 -0.3500
  O           0.57555      0.15040      0.03796 -0.3500
  O           0.63690      0.19305      0.06353 -0.3500
  O           0.63655      0.31090      0.10883 -0.3500
  O           0.54775      0.44810      0.06073 -0.3500
  O           0.57525      0.35310      0.09370 -0.3500
  O           0.56660      0.43260      0.14767 -0.3500
  O           0.50000      0.00000      0.16666 -0.3500
  O           0.54845      0.44320      0.22263 -0.3500
  O           0.59435      0.27465      0.15427 -0.3500
  O           0.58395      0.25245      0.06690 -0.3500
  O           0.57555      0.34960      0.20464 -0.3500
  O           0.63690      0.30695      0.23020 -0.3500
  O           0.63655      0.18910      0.27550 -0.3500
  O           0.54775      0.05190      0.22740 -0.3500
  O           0.57525      0.14690      0.26037 -0.3500
  O           0.56660      0.06740      0.31433 -0.3500
  O           0.54845      0.05680      0.05597 -0.3500
  O           0.59435      0.22535      0.32093 -0.3500
  O           0.50000      0.00715      0.08334 -0.3500
  O           0.58395      0.24755      0.23357 -0.3500
  O           0.92445      0.34960      0.29536 -0.3500
  O           0.86310      0.30695      0.26980 -0.3500
  O           0.86345      0.18910      0.22450 -0.3500
  O           0.95225      0.05190      0.27260 -0.3500
  O           0.92475      0.14690      0.23963 -0.3500
  O           0.93340      0.06740      0.18567 -0.3500
  O           0.95155      0.05680      0.11070 -0.3500
  O           0.90565      0.22535      0.17907 -0.3500
  O           0.91605      0.24755      0.26643 -0.3500
  O           0.67445      0.40040      0.46204 -0.3500
  O           0.61310      0.44305      0.43647 -0.3500
  O           0.61345      0.06090      0.39117 -0.3500
  O           0.70225      0.19810      0.43927 -0.3500
  O           0.67475      0.10310      0.40630 -0.3500
  O           0.68340      0.18260      0.35233 -0.3500
  O           0.75000      0.25000      0.33334 -0.3500
  O           0.70155      0.19320      0.61070 -0.3500
  O           0.65565      0.02465      0.34573 -0.3500
  O           0.75000      0.24285      0.58334 -0.3500
  O           0.66605      0.00245      0.43310 -0.3500
  O           0.82555      0.40040      0.37130 -0.3500
  O           0.88690      0.44305      0.39687 -0.3500
  O           0.88655      0.06090      0.44217 -0.3500
  O           0.79775      0.19810      0.39407 -0.3500
  O           0.82525      0.10310      0.42703 -0.3500
  O           0.81660      0.18260      0.48100 -0.3500
  O           0.75000      0.25000      0.50000 -0.3500
  O           0.79845      0.19320      0.55597 -0.3500
  O           0.84435      0.02465      0.48760 -0.3500
  O           0.83395      0.00245      0.40023 -0.3500
  O           0.82555      0.09960      0.53796 -0.3500
  O           0.88690      0.05695      0.56353 -0.3500
  O           0.88655      0.43910      0.60883 -0.3500
  O           0.79775      0.30190      0.56073 -0.3500
  O           0.82525      0.39690      0.59370 -0.3500
  O           0.81660      0.31740      0.64767 -0.3500
  O           0.79845      0.30680      0.38930 -0.3500
  O           0.84435      0.47535      0.65427 -0.3500
  O           0.75000      0.25715      0.41666 -0.3500
  O           0.83395      0.49755      0.56690 -0.3500
  O           0.67445      0.09960      0.62870 -0.3500
  O           0.61310      0.05695      0.60313 -0.3500
  O           0.61345      0.43910      0.55783 -0.3500
  O           0.70225      0.30190      0.60593 -0.3500
  O           0.67475      0.39690      0.57297 -0.3500
  O           0.68340      0.31740      0.51900 -0.3500
  O           0.70155      0.30680      0.44403 -0.3500
  O           0.65565      0.47535      0.51240 -0.3500
  O           0.66605      0.49755      0.59977 -0.3500
  O           0.92445      0.15040      0.46204 -0.3500
  O           0.86310      0.19305      0.43647 -0.3500
  O           0.86345      0.31090      0.39117 -0.3500
  O           0.95225      0.44810      0.43927 -0.3500
  O           0.92475      0.35310      0.40630 -0.3500
  O           0.93340      0.43260      0.35233 -0.3500
  O           0.50000      0.00000      0.33334 -0.3500
  O           0.95155      0.44320      0.61070 -0.3500
  O           0.90565      0.27465      0.34573 -0.3500
  O           0.50000      0.49285      0.58334 -0.3500
  O           0.91605      0.25245      0.43310 -0.3500
  O           0.57555      0.15040      0.37130 -0.3500
  O           0.63690      0.19305      0.39687 -0.3500
  O           0.63655      0.31090      0.44217 -0.3500
  O           0.54775      0.44810      0.39407 -0.3500
  O           0.57525      0.35310      0.42703 -0.3500
  O           0.56660      0.43260      0.48100 -0.3500
  O           0.50000      0.00000      0.50000 -0.3500
  O           0.54845      0.44320      0.55597 -0.3500
  O           0.59435      0.27465      0.48760 -0.3500
  O           0.58395      0.25245      0.40023 -0.3500
  O           0.57555      0.34960      0.53796 -0.3500
  O           0.63690      0.30695      0.56353 -0.3500
  O           0.63655      0.18910      0.60883 -0.3500
  O           0.54775      0.05190      0.56073 -0.3500
  O           0.57525      0.14690      0.59370 -0.3500
  O           0.56660      0.06740      0.64767 -0.3500
  O           0.54845      0.05680      0.38930 -0.3500
  O           0.59435      0.22535      0.65427 -0.3500
  O           0.50000      0.00715      0.41666 -0.3500
  O           0.58395      0.24755      0.56690 -0.3500
  O           0.92445      0.34960      0.62870 -0.3500
  O           0.86310      0.30695      0.60313 -0.3500
  O           0.86345      0.18910      0.55783 -0.3500
  O           0.95225      0.05190      0.60593 -0.3500
  O           0.92475      0.14690      0.57297 -0.3500
  O           0.93340      0.06740      0.51900 -0.3500
  O           0.95155      0.05680      0.44403 -0.3500
  O           0.90565      0.22535      0.51240 -0.3500
  O           0.91605      0.24755      0.59977 -0.3500
  O           0.67445      0.40040      0.79536 -0.3500
  O           0.61310      0.44305      0.76980 -0.3500
  O           0.61345      0.06090      0.72450 -0.3500
  O           0.70225      0.19810      0.77260 -0.3500
  O           0.67475      0.10310      0.73963 -0.3500
  O           0.68340      0.18260      0.68567 -0.3500
  O           0.75000      0.25000      0.66666 -0.3500
  O           0.70155      0.19320      0.94403 -0.3500
  O           0.65565      0.02465      0.67907 -0.3500
  O           0.75000      0.24285      0.91666 -0.3500
  O           0.66605      0.00245      0.76643 -0.3500
  O           0.82555      0.40040      0.70464 -0.3500
  O           0.88690      0.44305      0.73020 -0.3500
  O           0.88655      0.06090      0.77550 -0.3500
  O           0.79775      0.19810      0.72740 -0.3500
  O           0.82525      0.10310      0.76037 -0.3500
  O           0.81660      0.18260      0.81433 -0.3500
  O           0.75000      0.25000      0.83334 -0.3500
  O           0.79845      0.19320      0.88930 -0.3500
  O           0.84435      0.02465      0.82093 -0.3500
  O           0.83395      0.00245      0.73357 -0.3500
  O           0.82555      0.09960      0.87130 -0.3500
  O           0.88690      0.05695      0.89687 -0.3500
  O           0.88655      0.43910      0.94217 -0.3500
  O           0.79775      0.30190      0.89407 -0.3500
  O           0.82525      0.39690      0.92703 -0.3500
  O           0.81660      0.31740      0.98100 -0.3500
  O           0.79845      0.30680      0.72263 -0.3500
  O           0.84435      0.47535      0.98760 -0.3500
  O           0.75000      0.25715      0.75000 -0.3500
  O           0.83395      0.49755      0.90023 -0.3500
  O           0.67445      0.09960      0.96204 -0.3500
  O           0.61310      0.05695      0.93647 -0.3500
  O           0.61345      0.43910      0.89117 -0.3500
  O           0.70225      0.30190      0.93927 -0.3500
  O           0.67475      0.39690      0.90630 -0.3500
  O           0.68340      0.31740      0.85233 -0.3500
  O           0.70155      0.30680      0.77737 -0.3500
  O           0.65565      0.47535      0.84573 -0.3500
  O           0.66605      0.49755      0.93310 -0.3500
  O           0.92445      0.15040      0.79536 -0.3500
  O           0.86310      0.19305      0.76980 -0.3500
  O           0.86345      0.31090      0.72450 -0.3500
  O           0.95225      0.44810      0.77260 -0.3500
  O           0.92475      0.35310      0.73963 -0.3500
  O           0.93340      0.43260      0.68567 -0.3500
  O           0.50000      0.00000      0.66666 -0.3500
  O           0.95155      0.44320      0.94403 -0.3500
  O           0.90565      0.27465      0.67907 -0.3500
  O           0.50000      0.49285      0.91666 -0.3500
  O           0.91605      0.25245      0.76643 -0.3500
  O           0.57555      0.15040      0.70464 -0.3500
  O           0.63690      0.19305      0.73020 -0.3500
  O           0.63655      0.31090      0.77550 -0.3500
  O           0.54775      0.44810      0.72740 -0.3500
  O           0.57525      0.35310      0.76037 -0.3500
  O           0.56660      0.43260      0.81433 -0.3500
  O           0.50000      0.00000      0.83334 -0.3500
  O           0.54845      0.44320      0.88930 -0.3500
  O           0.59435      0.27465      0.82093 -0.3500
  O           0.58395      0.25245      0.73357 -0.3500
  O           0.57555      0.34960      0.87130 -0.3500
  O           0.63690      0.30695      0.89687 -0.3500
  O           0.63655      0.18910      0.94217 -0.3500
  O           0.54775      0.05190      0.89407 -0.3500
  O           0.57525      0.14690      0.92703 -0.3500
  O           0.56660      0.06740      0.98100 -0.3500
  O           0.54845      0.05680      0.72263 -0.3500
  O           0.59435      0.22535      0.98760 -0.3500
  O           0.50000      0.00715      0.75000 -0.3500
  O           0.58395      0.24755      0.90023 -0.3500
  O           0.92445      0.34960      0.96204 -0.3500
  O           0.86310      0.30695      0.93647 -0.3500
  O           0.86345      0.18910      0.89117 -0.3500
  O           0.95225      0.05190      0.93927 -0.3500
  O           0.92475      0.14690      0.90630 -0.3500
  O           0.93340      0.06740      0.85233 -0.3500
  O           0.95155      0.05680      0.77737 -0.3500
  O           0.90565      0.22535      0.84573 -0.3500
  O           0.91605      0.24755      0.93310 -0.3500
  O           0.67445      0.90040      0.12870 -0.3500
  O           0.61310      0.94305      0.10313 -0.3500
  O           0.61345      0.56090      0.05783 -0.3500
  O           0.70225      0.69810      0.10593 -0.3500
  O           0.67475      0.60310      0.07297 -0.3500
  O           0.68340      0.68260      0.01900 -0.3500
  O           0.75000      0.75000      0.00000 -0.3500
  O           0.70155      0.69320      0.27737 -0.3500
  O           0.65565      0.52465      0.01240 -0.3500
  O           0.75000      0.74285      0.25000 -0.3500
  O           0.66605      0.50245      0.09977 -0.3500
  O           0.82555      0.90040      0.03796 -0.3500
  O           0.88690      0.94305      0.06353 -0.3500
  O           0.88655      0.56090      0.10883 -0.3500
  O           0.79775      0.69810      0.06073 -0.3500
  O           0.82525      0.60310      0.09370 -0.3500
  O           0.81660      0.68260      0.14767 -0.3500
  O           0.75000      0.75000      0.16666 -0.3500
  O           0.79845      0.69320      0.22263 -0.3500
  O           0.84435      0.52465      0.15427 -0.3500
  O           0.83395      0.50245      0.06690 -0.3500
  O           0.82555      0.59960      0.20464 -0.3500
  O           0.88690      0.55695      0.23020 -0.3500
  O           0.88655      0.93910      0.27550 -0.3500
  O           0.79775      0.80190      0.22740 -0.3500
  O           0.82525      0.89690      0.26037 -0.3500
  O           0.81660      0.81740      0.31433 -0.3500
  O           0.79845      0.80680      0.05597 -0.3500
  O           0.84435      0.97535      0.32093 -0.3500
  O           0.75000      0.75715      0.08334 -0.3500
  O           0.83395      0.99755      0.23357 -0.3500
  O           0.67445      0.59960      0.29536 -0.3500
  O           0.61310      0.55695      0.26980 -0.3500
  O           0.61345      0.93910      0.22450 -0.3500
  O           0.70225      0.80190      0.27260 -0.3500
  O           0.67475      0.89690      0.23963 -0.3500
  O           0.68340      0.81740      0.18567 -0.3500
  O           0.70155      0.80680      0.11070 -0.3500
  O           0.65565      0.97535      0.17907 -0.3500
  O           0.66605      0.99755      0.26643 -0.3500
  O           0.92445      0.65040      0.12870 -0.3500
  O           0.86310      0.69305      0.10313 -0.3500
  O           0.86345      0.81090      0.05783 -0.3500
  O           0.95225      0.94810      0.10593 -0.3500
  O           0.92475      0.85310      0.07297 -0.3500
  O           0.93340      0.93260      0.01900 -0.3500
  O           0.50000      0.50000      0.00000 -0.3500
  O           0.95155      0.94320      0.27737 -0.3500
  O           0.90565      0.77465      0.01240 -0.3500
  O           0.50000      0.99285      0.25000 -0.3500
  O           0.91605      0.75245      0.09977 -0.3500
  O           0.57555      0.65040      0.03796 -0.3500
  O           0.63690      0.69305      0.06353 -0.3500
  O           0.63655      0.81090      0.10883 -0.3500
  O           0.54775      0.94810      0.06073 -0.3500
  O           0.57525      0.85310      0.09370 -0.3500
  O           0.56660      0.93260      0.14767 -0.3500
  O           0.50000      0.50000      0.16666 -0.3500
  O           0.54845      0.94320      0.22263 -0.3500
  O           0.59435      0.77465      0.15427 -0.3500
  O           0.58395      0.75245      0.06690 -0.3500
  O           0.57555      0.84960      0.20464 -0.3500
  O           0.63690      0.80695      0.23020 -0.3500
  O           0.63655      0.68910      0.27550 -0.3500
  O           0.54775      0.55190      0.22740 -0.3500
  O           0.57525      0.64690      0.26037 -0.3500
  O           0.56660      0.56740      0.31433 -0.3500
  O           0.54845      0.55680      0.05597 -0.3500
  O           0.59435      0.72535      0.32093 -0.3500
  O           0.50000      0.50715      0.08334 -0.3500
  O           0.58395      0.74755      0.23357 -0.3500
  O           0.92445      0.84960      0.29536 -0.3500
  O           0.86310      0.80695      0.26980 -0.3500
  O           0.86345      0.68910      0.22450 -0.3500
  O           0.95225      0.55190      0.27260 -0.3500
  O           0.92475      0.64690      0.23963 -0.3500
  O           0.93340      0.56740      0.18567 -0.3500
  O           0.95155      0.55680      0.11070 -0.3500
  O           0.90565      0.72535      0.17907 -0.3500
  O           0.91605      0.74755      0.26643 -0.3500
  O           0.67445      0.90040      0.46204 -0.3500
  O           0.61310      0.94305      0.43647 -0.3500
  O           0.61345      0.56090      0.39117 -0.3500
  O           0.70225      0.69810      0.43927 -0.3500
  O           0.67475      0.60310      0.40630 -0.3500
  O           0.68340      0.68260      0.35233 -0.3500
  O           0.75000      0.75000      0.33334 -0.3500
  O           0.70155      0.69320      0.61070 -0.3500
  O           0.65565      0.52465      0.34573 -0.3500
  O           0.75000      0.74285      0.58334 -0.3500
  O           0.66605      0.50245      0.43310 -0.3500
  O           0.82555      0.90040      0.37130 -0.3500
  O           0.88690      0.94305      0.39687 -0.3500
  O           0.88655      0.56090      0.44217 -0.3500
  O           0.79775      0.69810      0.39407 -0.3500
  O           0.82525      0.60310      0.42703 -0.3500
  O           0.81660      0.68260      0.48100 -0.3500
  O           0.75000      0.75000      0.50000 -0.3500
  O           0.79845      0.69320      0.55597 -0.3500
  O           0.84435      0.52465      0.48760 -0.3500
  O           0.83395      0.50245      0.40023 -0.3500
  O           0.82555      0.59960      0.53796 -0.3500
  O           0.88690      0.55695      0.56353 -0.3500
  O           0.88655      0.93910      0.60883 -0.3500
  O           0.79775      0.80190      0.56073 -0.3500
  O           0.82525      0.89690      0.59370 -0.3500
  O           0.81660      0.81740      0.64767 -0.3500
  O           0.79845      0.80680      0.38930 -0.3500
  O           0.84435      0.97535      0.65427 -0.3500
  O           0.75000      0.75715      0.41666 -0.3500
  O           0.83395      0.99755      0.56690 -0.3500
  O           0.67445      0.59960      0.62870 -0.3500
  O           0.61310      0.55695      0.60313 -0.3500
  O           0.61345      0.93910      0.55783 -0.3500
  O           0.70225      0.80190      0.60593 -0.3500
  O           0.67475      0.89690      0.57297 -0.3500
  O           0.68340      0.81740      0.51900 -0.3500
  O           0.70155      0.80680      0.44403 -0.3500
  O           0.65565      0.97535      0.51240 -0.3500
  O           0.66605      0.99755      0.59977 -0.3500
  O           0.92445      0.65040      0.46204 -0.3500
  O           0.86310      0.69305      0.43647 -0.3500
  O           0.86345      0.81090      0.39117 -0.3500
  O           0.95225      0.94810      0.43927 -0.3500
  O           0.92475      0.85310      0.40630 -0.3500
  O           0.93340      0.93260      0.35233 -0.3500
  O           0.50000      0.50000      0.33334 -0.3500
  O           0.95155      0.94320      0.61070 -0.3500
  O           0.90565      0.77465      0.34573 -0.3500
  O           0.50000      0.99285      0.58334 -0.3500
  O           0.91605      0.75245      0.43310 -0.3500
  O           0.57555      0.65040      0.37130 -0.3500
  O           0.63690      0.69305      0.39687 -0.3500
  O           0.63655      0.81090      0.44217 -0.3500
  O           0.54775      0.94810      0.39407 -0.3500
  O           0.57525      0.85310      0.42703 -0.3500
  O           0.56660      0.93260      0.48100 -0.3500
  O           0.50000      0.50000      0.50000 -0.3500
  O           0.54845      0.94320      0.55597 -0.3500
  O           0.59435      0.77465      0.48760 -0.3500
  O           0.58395      0.75245      0.40023 -0.3500
  O           0.57555      0.84960      0.53796 -0.3500
  O           0.63690      0.80695      0.56353 -0.3500
  O           0.63655      0.68910      0.60883 -0.3500
  O           0.54775      0.55190      0.56073 -0.3500
  O           0.57525      0.64690      0.59370 -0.3500
  O           0.56660      0.56740      0.64767 -0.3500
  O           0.54845      0.55680      0.38930 -0.3500
  O           0.59435      0.72535      0.65427 -0.3500
  O           0.50000      0.50715      0.41666 -0.3500
  O           0.58395      0.74755      0.56690 -0.3500
  O           0.92445      0.84960      0.62870 -0.3500
  O           0.86310      0.80695      0.60313 -0.3500
  O           0.86345      0.68910      0.55783 -0.3500
  O           0.95225      0.55190      0.60593 -0.3500
  O           0.92475      0.64690      0.57297 -0.3500
  O           0.93340      0.56740      0.51900 -0.3500
  O           0.95155      0.55680      0.44403 -0.3500
  O           0.90565      0.72535      0.51240 -0.3500
  O           0.91605      0.74755      0.59977 -0.3500
  O           0.67445      0.90040      0.79536 -0.3500
  O           0.61310      0.94305      0.76980 -0.3500
  O           0.61345      0.56090      0.72450 -0.3500
  O           0.70225      0.69810      0.77260 -0.3500
  O           0.67475      0.60310      0.73963 -0.3500
  O           0.68340      0.68260      0.68567 -0.3500
  O           0.75000      0.75000      0.66666 -0.3500
  O           0.70155      0.69320      0.94403 -0.3500
  O           0.65565      0.52465      0.67907 -0.3500
  O           0.75000      0.74285      0.91666 -0.3500
  O           0.66605      0.50245      0.76643 -0.3500
  O           0.82555      0.90040      0.70464 -0.3500
  O           0.88690      0.94305      0.73020 -0.3500
  O           0.88655      0.56090      0.77550 -0.3500
  O           0.79775      0.69810      0.72740 -0.3500
  O           0.82525      0.60310      0.76037 -0.3500
  O           0.81660      0.68260      0.81433 -0.3500
  O           0.75000      0.75000      0.83334 -0.3500
  O           0.79845      0.69320      0.88930 -0.3500
  O           0.84435      0.52465      0.82093 -0.3500
  O           0.83395      0.50245      0.73357 -0.3500
  O           0.82555      0.59960      0.87130 -0.3500
  O           0.88690      0.55695      0.89687 -0.3500
  O           0.88655      0.93910      0.94217 -0.3500
  O           0.79775      0.80190      0.89407 -0.3500
  O           0.82525      0.89690      0.92703 -0.3500
  O           0.81660      0.81740      0.98100 -0.3500
  O           0.79845      0.80680      0.72263 -0.3500
  O           0.84435      0.97535      0.98760 -0.3500
  O           0.75000      0.75715      0.75000 -0.3500
  O           0.83395      0.99755      0.90023 -0.3500
  O           0.67445      0.59960      0.96204 -0.3500
  O           0.61310      0.55695      0.93647 -0.3500
  O           0.61345      0.93910      0.89117 -0.3500
  O           0.70225      0.80190      0.93927 -0.3500
  O           0.67475      0.89690      0.90630 -0.3500
  O           0.68340      0.81740      0.85233 -0.3500
  O           0.70155      0.80680      0.77737 -0.3500
  O           0.65565      0.97535      0.84573 -0.3500
  O           0.66605      0.99755      0.93310 -0.3500
  O           0.92445      0.65040      0.79536 -0.3500
  O           0.86310      0.69305      0.76980 -0.3500
  O           0.86345      0.81090      0.72450 -0.3500
  O           0.95225      0.94810      0.77260 -0.3500
  O           0.92475      0.85310      0.73963 -0.3500
  O           0.93340      0.93260      0.68567 -0.3500
  O           0.50000      0.50000      0.66666 -0.3500
  O           0.95155      0.94320      0.94403 -0.3500
  O           0.90565      0.77465      0.67907 -0.3500
  O           0.50000      0.99285      0.91666 -0.3500
  O           0.91605      0.75245      0.76643 -0.3500
  O           0.57555      0.65040      0.70464 -0.3500
  O           0.63690      0.69305      0.73020 -0.3500
  O           0.63655      0.81090      0.77550 -0.3500
  O           0.54775      0.94810      0.72740 -0.3500
  O           0.57525      0.85310      0.76037 -0.3500
  O           0.56660      0.93260      0.81433 -0.3500
  O           0.50000      0.50000      0.83334 -0.3500
  O           0.54845      0.94320      0.88930 -0.3500
  O           0.59435      0.77465      0.82093 -0.3500
  O           0.58395      0.75245      0.73357 -0.3500
  O           0.57555      0.84960      0.87130 -0.3500
  O           0.63690      0.80695      0.89687 -0.3500
  O           0.63655      0.68910      0.94217 -0.3500
  O           0.54775      0.55190      0.89407 -0.3500
  O           0.57525      0.64690      0.92703 -0.3500
  O           0.56660      0.56740      0.98100 -0.3500
  O           0.54845      0.55680      0.72263 -0.3500
  O           0.59435      0.72535      0.98760 -0.3500
  O           0.50000      0.50715      0.75000 -0.3500
  O           0.58395      0.74755      0.90023 -0.3500
  O           0.92445      0.84960      0.96204 -0.3500
  O           0.86310      0.80695      0.93647 -0.3500
  O           0.86345      0.68910      0.89117 -0.3500
  O           0.95225      0.55190      0.93927 -0.3500
  O           0.92475      0.64690      0.90630 -0.3500
  O           0.93340      0.56740      0.85233 -0.3500
  O           0.95155      0.55680      0.77737 -0.3500
  O           0.90565      0.72535      0.84573 -0.3500
  O           0.91605      0.74755      0.93310 -0.3500
