data_output

_audit_creation_method RASPA-1.0
_audit_creation_date 2017-4-13
_audit_author_name 'axolotlol'

_cell_length_a    32.5542
_cell_length_b    32.5542
_cell_length_c    32.5542
_cell_angle_alpha 90
_cell_angle_beta  90
_cell_angle_gamma 90
_cell_volume      34500.2

_symmetry_cell_setting          triclinic
_symmetry_space_group_name_Hall 'P 1'
_symmetry_space_group_name_H-M  'P 1'
_symmetry_Int_Tables_number     1

_symmetry_equiv_pos_as_xyz 'x,y,z'

loop_
_atom_site_label
_atom_site_type_symbol
_atom_site_fract_x
_atom_site_fract_y
_atom_site_fract_z
_atom_site_charge
Zn       Zn     0.125000000000     0.250000000000     0.000000000000     0          
Zn       Zn     0.375000000000     0.000000000000     0.250000000000     0          
Zn       Zn     0.125000000000     0.000000000000     0.250000000000     0          
Zn       Zn     0.375000000000     0.250000000000     0.000000000000     0          
Zn       Zn     0.000000000000     0.125000000000     0.250000000000     0          
Zn       Zn     0.250000000000     0.375000000000     0.000000000000     0          
Zn       Zn     0.250000000000     0.000000000000     0.125000000000     0          
Zn       Zn     0.000000000000     0.250000000000     0.375000000000     0          
Zn       Zn     0.250000000000     0.125000000000     0.000000000000     0          
Zn       Zn     0.000000000000     0.375000000000     0.250000000000     0          
Zn       Zn     0.000000000000     0.250000000000     0.125000000000     0          
Zn       Zn     0.250000000000     0.000000000000     0.375000000000     0          
C1       C      0.315010011000     0.483615011000     0.184990003500     0          
N1       N      0.302015006500     0.000000000000     0.148825004500     0          
N1       N      0.351175010000     0.000000000000     0.197984993500     0          
C2       C      0.331699997000     0.028395000850     0.138355002000     0          
C2       C      0.361645013000     0.028395000850     0.168300003000     0          
C3       C      0.292124986500     0.451249987000     0.207874998500     0          
H1       H      0.389510005500     0.046514999100     0.170540005000     0          
H1       H      0.329459995000     0.046514999100     0.110490001500     0          
H2       H      0.269780010000     0.466340005500     0.230220005000     0          
H2       H      0.274325013000     0.431324988500     0.185240000500     0          
H2       H      0.314759999500     0.431324988500     0.225675001500     0          
C1       C      0.068405002500     0.229929998500     0.431594997500     0          
N1       N      0.052014999000     0.250000000000     0.398824990000     0          
N1       N      0.101175003000     0.250000000000     0.447984993500     0          
C2       C      0.075819999000     0.284774989000     0.394234985000     0          
C2       C      0.105765000000     0.284774989000     0.424180001000     0          
C3       C      0.052220002000     0.190294996000     0.447780013000     0          
H1       H      0.129875004500     0.306964993500     0.430169999500     0          
H1       H      0.069830000500     0.306964993500     0.370124995500     0          
H2       H      0.027875000600     0.196695000000     0.472124994000     0          
H2       H      0.037985000750     0.171930000000     0.421579987000     0          
H2       H      0.078419998500     0.171930000000     0.462015003000     0          
C1       C      0.184990003500     0.016385000200     0.184990003500     0          
N1       N      0.197984993500     0.000000000000     0.148825004500     0          
N1       N      0.148825004500     0.000000000000     0.197984993500     0          
C2       C      0.168300003000     0.471605003000     0.138355002000     0          
C2       C      0.138355002000     0.471605003000     0.168300003000     0          
C3       C      0.207874998500     0.048749998200     0.207874998500     0          
H1       H      0.110490001500     0.453485012000     0.170540005000     0          
H1       H      0.170540005000     0.453485012000     0.110490001500     0          
H2       H      0.230220005000     0.033659998350     0.230220005000     0          
H2       H      0.225675001500     0.068674996500     0.185240000500     0          
H2       H      0.185240000500     0.068674996500     0.225675001500     0          
C1       C      0.431594997500     0.229929998500     0.431594997500     0          
N1       N      0.447984993500     0.250000000000     0.398824990000     0          
N1       N      0.398824990000     0.250000000000     0.447984993500     0          
C2       C      0.424180001000     0.284774989000     0.394234985000     0          
C2       C      0.394234985000     0.284774989000     0.424180001000     0          
C3       C      0.447780013000     0.190294996000     0.447780013000     0          
H1       H      0.370124995500     0.306964993500     0.430169999500     0          
H1       H      0.430169999500     0.306964993500     0.370124995500     0          
H2       H      0.431690007500     0.163680002000     0.431690007500     0          
H2       H      0.482235014500     0.188439995000     0.441794991500     0          
H2       H      0.441794991500     0.188439995000     0.482235014500     0          
C1       C      0.060770001500     0.244004994500     0.060770001500     0          
N1       N      0.052014999000     0.250000000000     0.101175003000     0          
N1       N      0.101175003000     0.250000000000     0.052014999000     0          
C2       C      0.089050002500     0.260394990500     0.118989996500     0          
C2       C      0.118989996500     0.260394990500     0.089050002500     0          
C3       C      0.029504999500     0.232154995000     0.029504999500     0          
H1       H      0.151545003000     0.267024994000     0.091499999000     0          
H1       H      0.091499999000     0.267024994000     0.151545003000     0          
H2       H      0.027574999250     0.197245002000     0.027574999250     0          
H2       H      0.498295009000     0.245079994000     0.038729999200     0          
H2       H      0.038729999200     0.245079994000     0.498295009000     0          
C1       C      0.312404990000     0.011584999950     0.312404990000     0          
N1       N      0.302015006500     0.000000000000     0.351175010000     0          
N1       N      0.351175010000     0.000000000000     0.302015006500     0          
C2       C      0.336214989500     0.479925006500     0.366154998500     0          
C2       C      0.366154998500     0.479925006500     0.336214989500     0          
C3       C      0.284375012000     0.034469999350     0.284375012000     0          
H1       H      0.396899998000     0.467110008000     0.336854994500     0          
H1       H      0.336854994500     0.467110008000     0.396899998000     0          
H2       H      0.265554994500     0.011714999550     0.265554994500     0          
H2       H      0.262849986500     0.054604999500     0.303285002500     0          
H2       H      0.303285002500     0.054604999500     0.262849986500     0          
C1       C      0.434989989000     0.266384989000     0.065009996500     0          
N1       N      0.447984993500     0.250000000000     0.101175003000     0          
N1       N      0.398824990000     0.250000000000     0.052014999000     0          
C2       C      0.418300003000     0.221605003000     0.111644998000     0          
C2       C      0.388354987000     0.221605003000     0.081699997000     0          
C3       C      0.457875013500     0.298750013000     0.042125001550     0          
H1       H      0.360489994500     0.203484997000     0.079460002500     0          
H1       H      0.420540005000     0.203484997000     0.139510005500     0          
H2       H      0.447205007000     0.330350011500     0.052795000500     0          
H2       H      0.492184996500     0.295329988000     0.048250000900     0          
H2       H      0.451750010500     0.295329988000     0.007814999650     0          
C1       C      0.184990003500     0.483615011000     0.315010011000     0          
N1       N      0.197984993500     0.000000000000     0.351175010000     0          
N1       N      0.148825004500     0.000000000000     0.302015006500     0          
C2       C      0.168300003000     0.028395000850     0.361645013000     0          
C2       C      0.138355002000     0.028395000850     0.331699997000     0          
C3       C      0.207874998500     0.451249987000     0.292124986500     0          
H1       H      0.110490001500     0.046514999100     0.329459995000     0          
H1       H      0.170540005000     0.046514999100     0.389510005500     0          
H2       H      0.230220005000     0.466340005500     0.269780010000     0          
H2       H      0.225675001500     0.431324988500     0.314759999500     0          
H2       H      0.185240000500     0.431324988500     0.274325013000     0          
C1       C      0.187594995000     0.312404990000     0.011584999950     0          
N1       N      0.197984993500     0.351175010000     0.000000000000     0          
N1       N      0.148825004500     0.302015006500     0.000000000000     0          
C2       C      0.163784995500     0.366154998500     0.479925006500     0          
C2       C      0.133845001500     0.336214989500     0.479925006500     0          
C3       C      0.215625003000     0.284375012000     0.034469999350     0          
H1       H      0.103100002000     0.336854994500     0.467110008000     0          
H1       H      0.163145005500     0.396899998000     0.467110008000     0          
H2       H      0.234445005500     0.265554994500     0.011714999550     0          
H2       H      0.237149998500     0.303285002500     0.054604999500     0          
H2       H      0.196714997500     0.262849986500     0.054604999500     0          
C1       C      0.437595010000     0.062405001500     0.238415003000     0          
N1       N      0.447984993500     0.101175003000     0.250000000000     0          
N1       N      0.398824990000     0.052014999000     0.250000000000     0          
C2       C      0.413785010500     0.116154998500     0.270074993500     0          
C2       C      0.383845001500     0.086214997000     0.270074993500     0          
C3       C      0.465624988000     0.034375000750     0.215529993000     0          
H1       H      0.353100002000     0.086855001500     0.282889992000     0          
H1       H      0.413145005500     0.146899998000     0.282889992000     0          
H2       H      0.461100012000     0.038899999100     0.181099996000     0          
H2       H      0.498825013500     0.041609998800     0.223989993500     0          
H2       H      0.458389997500     0.001174999985     0.223989993500     0          
C1       C      0.020069999600     0.181594997500     0.318405002500     0          
N1       N      0.000000000000     0.197984993500     0.351175010000     0          
N1       N      0.000000000000     0.148825004500     0.302015006500     0          
C2       C      0.465225011000     0.174180001000     0.355765015000     0          
C2       C      0.465225011000     0.144235000000     0.325819999000     0          
C3       C      0.059705000500     0.197779998000     0.302219987000     0          
H1       H      0.443035006500     0.120125003000     0.319830000500     0          
H1       H      0.443035006500     0.180169999500     0.379875004500     0          
H2       H      0.053305000000     0.222124994000     0.277875006000     0          
H2       H      0.078070000000     0.212015003000     0.328420013000     0          
H2       H      0.078070000000     0.171580001500     0.287984997000     0          
C1       C      0.233614996000     0.434989989000     0.065009996500     0          
N1       N      0.250000000000     0.447984993500     0.101175003000     0          
N1       N      0.250000000000     0.398824990000     0.052014999000     0          
C2       C      0.278394997000     0.418300003000     0.111644998000     0          
C2       C      0.278394997000     0.388354987000     0.081699997000     0          
C3       C      0.201250002000     0.457875013500     0.042125001550     0          
H1       H      0.296514988000     0.360489994500     0.079460002500     0          
H1       H      0.296514988000     0.420540005000     0.139510005500     0          
H2       H      0.169650003500     0.447205007000     0.052795000500     0          
H2       H      0.204669997000     0.492184996500     0.048250000900     0          
H2       H      0.204669997000     0.451750010500     0.007814999650     0          
C1       C      0.065009996500     0.434989989000     0.233614996000     0          
N1       N      0.052014999000     0.398824990000     0.250000000000     0          
N1       N      0.101175003000     0.447984993500     0.250000000000     0          
C2       C      0.081699997000     0.388354987000     0.278394997000     0          
C2       C      0.111644998000     0.418300003000     0.278394997000     0          
C3       C      0.042125001550     0.457875013500     0.201250002000     0          
H1       H      0.139510005500     0.420540005000     0.296514988000     0          
H1       H      0.079460002500     0.360489994500     0.296514988000     0          
H2       H      0.052795000500     0.447205007000     0.169650003500     0          
H2       H      0.007814999650     0.451750010500     0.204669997000     0          
H2       H      0.048250000900     0.492184996500     0.204669997000     0          
C1       C      0.315010011000     0.184990003500     0.016385000200     0          
N1       N      0.302015006500     0.148825004500     0.000000000000     0          
N1       N      0.351175010000     0.197984993500     0.000000000000     0          
C2       C      0.331699997000     0.138355002000     0.471605003000     0          
C2       C      0.361645013000     0.168300003000     0.471605003000     0          
C3       C      0.292124986500     0.207874998500     0.048749998200     0          
H1       H      0.389510005500     0.170540005000     0.453485012000     0          
H1       H      0.329459995000     0.110490001500     0.453485012000     0          
H2       H      0.269780010000     0.230220005000     0.033659998350     0          
H2       H      0.274325013000     0.185240000500     0.068674996500     0          
H2       H      0.314759999500     0.225675001500     0.068674996500     0          
C1       C      0.005994999800     0.189229995000     0.189229995000     0          
N1       N      0.000000000000     0.197984993500     0.148825004500     0          
N1       N      0.000000000000     0.148825004500     0.197984993500     0          
C2       C      0.489605009500     0.160950005000     0.131009996000     0          
C2       C      0.489605009500     0.131009996000     0.160950005000     0          
C3       C      0.017844999200     0.220495000500     0.220495000500     0          
H1       H      0.482975006000     0.098454997000     0.158500001000     0          
H1       H      0.482975006000     0.158500001000     0.098454997000     0          
H2       H      0.052754998000     0.222424999000     0.222424999000     0          
H2       H      0.004920000210     0.251704991000     0.211270004500     0          
H2       H      0.004920000210     0.211270004500     0.251704991000     0          
C1       C      0.266384989000     0.434989989000     0.434989989000     0          
N1       N      0.250000000000     0.447984993500     0.398824990000     0          
N1       N      0.250000000000     0.398824990000     0.447984993500     0          
C2       C      0.221605003000     0.418300003000     0.388354987000     0          
C2       C      0.221605003000     0.388354987000     0.418300003000     0          
C3       C      0.298750013000     0.457875013500     0.457875013500     0          
H1       H      0.203484997000     0.360489994500     0.420540005000     0          
H1       H      0.203484997000     0.420540005000     0.360489994500     0          
H2       H      0.330350011500     0.447205007000     0.447205007000     0          
H2       H      0.295329988000     0.492184996500     0.451750010500     0          
H2       H      0.295329988000     0.451750010500     0.492184996500     0          
C1       C      0.184990003500     0.184990003500     0.483615011000     0          
N1       N      0.197984993500     0.148825004500     0.000000000000     0          
N1       N      0.148825004500     0.197984993500     0.000000000000     0          
C2       C      0.168300003000     0.138355002000     0.028395000850     0          
C2       C      0.138355002000     0.168300003000     0.028395000850     0          
C3       C      0.207874998500     0.207874998500     0.451249987000     0          
H1       H      0.110490001500     0.170540005000     0.046514999100     0          
H1       H      0.170540005000     0.110490001500     0.046514999100     0          
H2       H      0.230220005000     0.230220005000     0.466340005500     0          
H2       H      0.225675001500     0.185240000500     0.431324988500     0          
H2       H      0.185240000500     0.225675001500     0.431324988500     0          
C1       C      0.431594997500     0.431594997500     0.270069986500     0          
N1       N      0.447984993500     0.398824990000     0.250000000000     0          
N1       N      0.398824990000     0.447984993500     0.250000000000     0          
C2       C      0.424180001000     0.394234985000     0.215224996000     0          
C2       C      0.394234985000     0.424180001000     0.215224996000     0          
C3       C      0.447780013000     0.447780013000     0.309704989000     0          
H1       H      0.370124995500     0.430169999500     0.193035006500     0          
H1       H      0.430169999500     0.370124995500     0.193035006500     0          
H2       H      0.431690007500     0.431690007500     0.336320013000     0          
H2       H      0.482235014500     0.441794991500     0.311560005000     0          
H2       H      0.441794991500     0.482235014500     0.311560005000     0          
C1       C      0.266384989000     0.065009996500     0.065009996500     0          
N1       N      0.250000000000     0.101175003000     0.052014999000     0          
N1       N      0.250000000000     0.052014999000     0.101175003000     0          
C2       C      0.221605003000     0.111644998000     0.081699997000     0          
C2       C      0.221605003000     0.081699997000     0.111644998000     0          
C3       C      0.298750013000     0.042125001550     0.042125001550     0          
H1       H      0.203484997000     0.079460002500     0.139510005500     0          
H1       H      0.203484997000     0.139510005500     0.079460002500     0          
H2       H      0.283659994500     0.019780000650     0.019780000650     0          
H2       H      0.318675011500     0.064759999500     0.024325000100     0          
H2       H      0.318675011500     0.024325000100     0.064759999500     0          
C1       C      0.494004994500     0.310770005000     0.310770005000     0          
N1       N      0.000000000000     0.351175010000     0.302015006500     0          
N1       N      0.000000000000     0.302015006500     0.351175010000     0          
C2       C      0.010394999750     0.368990004000     0.339049995000     0          
C2       C      0.010394999750     0.339049995000     0.368990004000     0          
C3       C      0.482154995000     0.279505014500     0.279505014500     0          
H1       H      0.017024999500     0.341500014000     0.401544988000     0          
H1       H      0.017024999500     0.401544988000     0.341500014000     0          
H2       H      0.447245002000     0.277574986000     0.277574986000     0          
H2       H      0.495079994000     0.288729995500     0.248294994000     0          
H2       H      0.495079994000     0.248294994000     0.288729995500     0          
C1       C      0.065009996500     0.065009996500     0.266384989000     0          
N1       N      0.052014999000     0.101175003000     0.250000000000     0          
N1       N      0.101175003000     0.052014999000     0.250000000000     0          
C2       C      0.081699997000     0.111644998000     0.221605003000     0          
C2       C      0.111644998000     0.081699997000     0.221605003000     0          
C3       C      0.042125001550     0.042125001550     0.298750013000     0          
H1       H      0.139510005500     0.079460002500     0.203484997000     0          
H1       H      0.079460002500     0.139510005500     0.203484997000     0          
H2       H      0.052795000500     0.052795000500     0.330350011500     0          
H2       H      0.007814999650     0.048250000900     0.295329988000     0          
H2       H      0.048250000900     0.007814999650     0.295329988000     0          
C1       C      0.315010011000     0.315010011000     0.483615011000     0          
N1       N      0.302015006500     0.351175010000     0.000000000000     0          
N1       N      0.351175010000     0.302015006500     0.000000000000     0          
C2       C      0.331699997000     0.361645013000     0.028395000850     0          
C2       C      0.361645013000     0.331699997000     0.028395000850     0          
C3       C      0.292124986500     0.292124986500     0.451249987000     0          
H1       H      0.389510005500     0.329459995000     0.046514999100     0          
H1       H      0.329459995000     0.389510005500     0.046514999100     0          
H2       H      0.269780010000     0.269780010000     0.466340005500     0          
H2       H      0.274325013000     0.314759999500     0.431324988500     0          
H2       H      0.314759999500     0.274325013000     0.431324988500     0          
C1       C      0.233614996000     0.065009996500     0.434989989000     0          
N1       N      0.250000000000     0.052014999000     0.398824990000     0          
N1       N      0.250000000000     0.101175003000     0.447984993500     0          
C2       C      0.278394997000     0.081699997000     0.388354987000     0          
C2       C      0.278394997000     0.111644998000     0.418300003000     0          
C3       C      0.201250002000     0.042125001550     0.457875013500     0          
H1       H      0.296514988000     0.139510005500     0.420540005000     0          
H1       H      0.296514988000     0.079460002500     0.360489994500     0          
H2       H      0.169650003500     0.052795000500     0.447205007000     0          
H2       H      0.204669997000     0.007814999650     0.451750010500     0          
H2       H      0.204669997000     0.048250000900     0.492184996500     0          
C1       C      0.479930013500     0.318405002500     0.181594997500     0          
N1       N      0.000000000000     0.302015006500     0.148825004500     0          
N1       N      0.000000000000     0.351175010000     0.197984993500     0          
C2       C      0.034775000050     0.325819999000     0.144235000000     0          
C2       C      0.034775000050     0.355765015000     0.174180001000     0          
C3       C      0.440295011000     0.302219987000     0.197779998000     0          
H1       H      0.056965001000     0.379875004500     0.180169999500     0          
H1       H      0.056965001000     0.319830000500     0.120125003000     0          
H2       H      0.413679987000     0.318309992500     0.181690007500     0          
H2       H      0.438439995000     0.267764985500     0.191795006500     0          
H2       H      0.438439995000     0.308205008500     0.232234999500     0          
Zn       Zn     0.125000000000     0.250000000000     0.500000000000     0          
Zn       Zn     0.375000000000     0.000000000000     0.750000000000     0          
Zn       Zn     0.125000000000     0.000000000000     0.750000000000     0          
Zn       Zn     0.375000000000     0.250000000000     0.500000000000     0          
Zn       Zn     0.000000000000     0.125000000000     0.750000000000     0          
Zn       Zn     0.250000000000     0.375000000000     0.500000000000     0          
Zn       Zn     0.250000000000     0.000000000000     0.625000000000     0          
Zn       Zn     0.000000000000     0.250000000000     0.875000000000     0          
Zn       Zn     0.250000000000     0.125000000000     0.500000000000     0          
Zn       Zn     0.000000000000     0.375000000000     0.750000000000     0          
Zn       Zn     0.000000000000     0.250000000000     0.625000000000     0          
Zn       Zn     0.250000000000     0.000000000000     0.875000000000     0          
C1       C      0.315010011000     0.483615011000     0.684990003500     0          
N1       N      0.302015006500     0.000000000000     0.648825004500     0          
N1       N      0.351175010000     0.000000000000     0.697984993500     0          
C2       C      0.331699997000     0.028395000850     0.638355002000     0          
C2       C      0.361645013000     0.028395000850     0.668300003000     0          
C3       C      0.292124986500     0.451249987000     0.707874998500     0          
H1       H      0.389510005500     0.046514999100     0.670540005000     0          
H1       H      0.329459995000     0.046514999100     0.610490001500     0          
H2       H      0.269780010000     0.466340005500     0.730220005000     0          
H2       H      0.274325013000     0.431324988500     0.685240000500     0          
H2       H      0.314759999500     0.431324988500     0.725675001500     0          
C1       C      0.068405002500     0.229929998500     0.931594997500     0          
N1       N      0.052014999000     0.250000000000     0.898824990000     0          
N1       N      0.101175003000     0.250000000000     0.947984993500     0          
C2       C      0.075819999000     0.284774989000     0.894234985000     0          
C2       C      0.105765000000     0.284774989000     0.924180001000     0          
C3       C      0.052220002000     0.190294996000     0.947780013000     0          
H1       H      0.129875004500     0.306964993500     0.930169999500     0          
H1       H      0.069830000500     0.306964993500     0.870124995500     0          
H2       H      0.027875000600     0.196695000000     0.972124994000     0          
H2       H      0.037985000750     0.171930000000     0.921579987000     0          
H2       H      0.078419998500     0.171930000000     0.962015003000     0          
C1       C      0.184990003500     0.016385000200     0.684990003500     0          
N1       N      0.197984993500     0.000000000000     0.648825004500     0          
N1       N      0.148825004500     0.000000000000     0.697984993500     0          
C2       C      0.168300003000     0.471605003000     0.638355002000     0          
C2       C      0.138355002000     0.471605003000     0.668300003000     0          
C3       C      0.207874998500     0.048749998200     0.707874998500     0          
H1       H      0.110490001500     0.453485012000     0.670540005000     0          
H1       H      0.170540005000     0.453485012000     0.610490001500     0          
H2       H      0.230220005000     0.033659998350     0.730220005000     0          
H2       H      0.225675001500     0.068674996500     0.685240000500     0          
H2       H      0.185240000500     0.068674996500     0.725675001500     0          
C1       C      0.431594997500     0.229929998500     0.931594997500     0          
N1       N      0.447984993500     0.250000000000     0.898824990000     0          
N1       N      0.398824990000     0.250000000000     0.947984993500     0          
C2       C      0.424180001000     0.284774989000     0.894234985000     0          
C2       C      0.394234985000     0.284774989000     0.924180001000     0          
C3       C      0.447780013000     0.190294996000     0.947780013000     0          
H1       H      0.370124995500     0.306964993500     0.930169999500     0          
H1       H      0.430169999500     0.306964993500     0.870124995500     0          
H2       H      0.431690007500     0.163680002000     0.931690007500     0          
H2       H      0.482235014500     0.188439995000     0.941794991500     0          
H2       H      0.441794991500     0.188439995000     0.982235014500     0          
C1       C      0.060770001500     0.244004994500     0.560770001500     0          
N1       N      0.052014999000     0.250000000000     0.601175003000     0          
N1       N      0.101175003000     0.250000000000     0.552014999000     0          
C2       C      0.089050002500     0.260394990500     0.618989996500     0          
C2       C      0.118989996500     0.260394990500     0.589050002500     0          
C3       C      0.029504999500     0.232154995000     0.529504999500     0          
H1       H      0.151545003000     0.267024994000     0.591499999000     0          
H1       H      0.091499999000     0.267024994000     0.651545003000     0          
H2       H      0.027574999250     0.197245002000     0.527574999250     0          
H2       H      0.498295009000     0.245079994000     0.538729999200     0          
H2       H      0.038729999200     0.245079994000     0.998295009000     0          
C1       C      0.312404990000     0.011584999950     0.812404990000     0          
N1       N      0.302015006500     0.000000000000     0.851175010000     0          
N1       N      0.351175010000     0.000000000000     0.802015006500     0          
C2       C      0.336214989500     0.479925006500     0.866154998500     0          
C2       C      0.366154998500     0.479925006500     0.836214989500     0          
C3       C      0.284375012000     0.034469999350     0.784375012000     0          
H1       H      0.396899998000     0.467110008000     0.836854994500     0          
H1       H      0.336854994500     0.467110008000     0.896899998000     0          
H2       H      0.265554994500     0.011714999550     0.765554994500     0          
H2       H      0.262849986500     0.054604999500     0.803285002500     0          
H2       H      0.303285002500     0.054604999500     0.762849986500     0          
C1       C      0.434989989000     0.266384989000     0.565009996500     0          
N1       N      0.447984993500     0.250000000000     0.601175003000     0          
N1       N      0.398824990000     0.250000000000     0.552014999000     0          
C2       C      0.418300003000     0.221605003000     0.611644998000     0          
C2       C      0.388354987000     0.221605003000     0.581699997000     0          
C3       C      0.457875013500     0.298750013000     0.542125001550     0          
H1       H      0.360489994500     0.203484997000     0.579460002500     0          
H1       H      0.420540005000     0.203484997000     0.639510005500     0          
H2       H      0.447205007000     0.330350011500     0.552795000500     0          
H2       H      0.492184996500     0.295329988000     0.548250000900     0          
H2       H      0.451750010500     0.295329988000     0.507814999650     0          
C1       C      0.184990003500     0.483615011000     0.815010011000     0          
N1       N      0.197984993500     0.000000000000     0.851175010000     0          
N1       N      0.148825004500     0.000000000000     0.802015006500     0          
C2       C      0.168300003000     0.028395000850     0.861645013000     0          
C2       C      0.138355002000     0.028395000850     0.831699997000     0          
C3       C      0.207874998500     0.451249987000     0.792124986500     0          
H1       H      0.110490001500     0.046514999100     0.829459995000     0          
H1       H      0.170540005000     0.046514999100     0.889510005500     0          
H2       H      0.230220005000     0.466340005500     0.769780010000     0          
H2       H      0.225675001500     0.431324988500     0.814759999500     0          
H2       H      0.185240000500     0.431324988500     0.774325013000     0          
C1       C      0.187594995000     0.312404990000     0.511584999950     0          
N1       N      0.197984993500     0.351175010000     0.500000000000     0          
N1       N      0.148825004500     0.302015006500     0.500000000000     0          
C2       C      0.163784995500     0.366154998500     0.979925006500     0          
C2       C      0.133845001500     0.336214989500     0.979925006500     0          
C3       C      0.215625003000     0.284375012000     0.534469999350     0          
H1       H      0.103100002000     0.336854994500     0.967110008000     0          
H1       H      0.163145005500     0.396899998000     0.967110008000     0          
H2       H      0.234445005500     0.265554994500     0.511714999550     0          
H2       H      0.237149998500     0.303285002500     0.554604999500     0          
H2       H      0.196714997500     0.262849986500     0.554604999500     0          
C1       C      0.437595010000     0.062405001500     0.738415003000     0          
N1       N      0.447984993500     0.101175003000     0.750000000000     0          
N1       N      0.398824990000     0.052014999000     0.750000000000     0          
C2       C      0.413785010500     0.116154998500     0.770074993500     0          
C2       C      0.383845001500     0.086214997000     0.770074993500     0          
C3       C      0.465624988000     0.034375000750     0.715529993000     0          
H1       H      0.353100002000     0.086855001500     0.782889992000     0          
H1       H      0.413145005500     0.146899998000     0.782889992000     0          
H2       H      0.461100012000     0.038899999100     0.681099996000     0          
H2       H      0.498825013500     0.041609998800     0.723989993500     0          
H2       H      0.458389997500     0.001174999985     0.723989993500     0          
C1       C      0.020069999600     0.181594997500     0.818405002500     0          
N1       N      0.000000000000     0.197984993500     0.851175010000     0          
N1       N      0.000000000000     0.148825004500     0.802015006500     0          
C2       C      0.465225011000     0.174180001000     0.855765015000     0          
C2       C      0.465225011000     0.144235000000     0.825819999000     0          
C3       C      0.059705000500     0.197779998000     0.802219987000     0          
H1       H      0.443035006500     0.120125003000     0.819830000500     0          
H1       H      0.443035006500     0.180169999500     0.879875004500     0          
H2       H      0.053305000000     0.222124994000     0.777875006000     0          
H2       H      0.078070000000     0.212015003000     0.828420013000     0          
H2       H      0.078070000000     0.171580001500     0.787984997000     0          
C1       C      0.233614996000     0.434989989000     0.565009996500     0          
N1       N      0.250000000000     0.447984993500     0.601175003000     0          
N1       N      0.250000000000     0.398824990000     0.552014999000     0          
C2       C      0.278394997000     0.418300003000     0.611644998000     0          
C2       C      0.278394997000     0.388354987000     0.581699997000     0          
C3       C      0.201250002000     0.457875013500     0.542125001550     0          
H1       H      0.296514988000     0.360489994500     0.579460002500     0          
H1       H      0.296514988000     0.420540005000     0.639510005500     0          
H2       H      0.169650003500     0.447205007000     0.552795000500     0          
H2       H      0.204669997000     0.492184996500     0.548250000900     0          
H2       H      0.204669997000     0.451750010500     0.507814999650     0          
C1       C      0.065009996500     0.434989989000     0.733614996000     0          
N1       N      0.052014999000     0.398824990000     0.750000000000     0          
N1       N      0.101175003000     0.447984993500     0.750000000000     0          
C2       C      0.081699997000     0.388354987000     0.778394997000     0          
C2       C      0.111644998000     0.418300003000     0.778394997000     0          
C3       C      0.042125001550     0.457875013500     0.701250002000     0          
H1       H      0.139510005500     0.420540005000     0.796514988000     0          
H1       H      0.079460002500     0.360489994500     0.796514988000     0          
H2       H      0.052795000500     0.447205007000     0.669650003500     0          
H2       H      0.007814999650     0.451750010500     0.704669997000     0          
H2       H      0.048250000900     0.492184996500     0.704669997000     0          
C1       C      0.315010011000     0.184990003500     0.516385000200     0          
N1       N      0.302015006500     0.148825004500     0.500000000000     0          
N1       N      0.351175010000     0.197984993500     0.500000000000     0          
C2       C      0.331699997000     0.138355002000     0.971605003000     0          
C2       C      0.361645013000     0.168300003000     0.971605003000     0          
C3       C      0.292124986500     0.207874998500     0.548749998200     0          
H1       H      0.389510005500     0.170540005000     0.953485012000     0          
H1       H      0.329459995000     0.110490001500     0.953485012000     0          
H2       H      0.269780010000     0.230220005000     0.533659998350     0          
H2       H      0.274325013000     0.185240000500     0.568674996500     0          
H2       H      0.314759999500     0.225675001500     0.568674996500     0          
C1       C      0.005994999800     0.189229995000     0.689229995000     0          
N1       N      0.000000000000     0.197984993500     0.648825004500     0          
N1       N      0.000000000000     0.148825004500     0.697984993500     0          
C2       C      0.489605009500     0.160950005000     0.631009996000     0          
C2       C      0.489605009500     0.131009996000     0.660950005000     0          
C3       C      0.017844999200     0.220495000500     0.720495000500     0          
H1       H      0.482975006000     0.098454997000     0.658500001000     0          
H1       H      0.482975006000     0.158500001000     0.598454997000     0          
H2       H      0.052754998000     0.222424999000     0.722424999000     0          
H2       H      0.004920000210     0.251704991000     0.711270004500     0          
H2       H      0.004920000210     0.211270004500     0.751704991000     0          
C1       C      0.266384989000     0.434989989000     0.934989989000     0          
N1       N      0.250000000000     0.447984993500     0.898824990000     0          
N1       N      0.250000000000     0.398824990000     0.947984993500     0          
C2       C      0.221605003000     0.418300003000     0.888354987000     0          
C2       C      0.221605003000     0.388354987000     0.918300003000     0          
C3       C      0.298750013000     0.457875013500     0.957875013500     0          
H1       H      0.203484997000     0.360489994500     0.920540005000     0          
H1       H      0.203484997000     0.420540005000     0.860489994500     0          
H2       H      0.330350011500     0.447205007000     0.947205007000     0          
H2       H      0.295329988000     0.492184996500     0.951750010500     0          
H2       H      0.295329988000     0.451750010500     0.992184996500     0          
C1       C      0.184990003500     0.184990003500     0.983615011000     0          
N1       N      0.197984993500     0.148825004500     0.500000000000     0          
N1       N      0.148825004500     0.197984993500     0.500000000000     0          
C2       C      0.168300003000     0.138355002000     0.528395000850     0          
C2       C      0.138355002000     0.168300003000     0.528395000850     0          
C3       C      0.207874998500     0.207874998500     0.951249987000     0          
H1       H      0.110490001500     0.170540005000     0.546514999100     0          
H1       H      0.170540005000     0.110490001500     0.546514999100     0          
H2       H      0.230220005000     0.230220005000     0.966340005500     0          
H2       H      0.225675001500     0.185240000500     0.931324988500     0          
H2       H      0.185240000500     0.225675001500     0.931324988500     0          
C1       C      0.431594997500     0.431594997500     0.770069986500     0          
N1       N      0.447984993500     0.398824990000     0.750000000000     0          
N1       N      0.398824990000     0.447984993500     0.750000000000     0          
C2       C      0.424180001000     0.394234985000     0.715224996000     0          
C2       C      0.394234985000     0.424180001000     0.715224996000     0          
C3       C      0.447780013000     0.447780013000     0.809704989000     0          
H1       H      0.370124995500     0.430169999500     0.693035006500     0          
H1       H      0.430169999500     0.370124995500     0.693035006500     0          
H2       H      0.431690007500     0.431690007500     0.836320013000     0          
H2       H      0.482235014500     0.441794991500     0.811560005000     0          
H2       H      0.441794991500     0.482235014500     0.811560005000     0          
C1       C      0.266384989000     0.065009996500     0.565009996500     0          
N1       N      0.250000000000     0.101175003000     0.552014999000     0          
N1       N      0.250000000000     0.052014999000     0.601175003000     0          
C2       C      0.221605003000     0.111644998000     0.581699997000     0          
C2       C      0.221605003000     0.081699997000     0.611644998000     0          
C3       C      0.298750013000     0.042125001550     0.542125001550     0          
H1       H      0.203484997000     0.079460002500     0.639510005500     0          
H1       H      0.203484997000     0.139510005500     0.579460002500     0          
H2       H      0.283659994500     0.019780000650     0.519780000650     0          
H2       H      0.318675011500     0.064759999500     0.524325000100     0          
H2       H      0.318675011500     0.024325000100     0.564759999500     0          
C1       C      0.494004994500     0.310770005000     0.810770005000     0          
N1       N      0.000000000000     0.351175010000     0.802015006500     0          
N1       N      0.000000000000     0.302015006500     0.851175010000     0          
C2       C      0.010394999750     0.368990004000     0.839049995000     0          
C2       C      0.010394999750     0.339049995000     0.868990004000     0          
C3       C      0.482154995000     0.279505014500     0.779505014500     0          
H1       H      0.017024999500     0.341500014000     0.901544988000     0          
H1       H      0.017024999500     0.401544988000     0.841500014000     0          
H2       H      0.447245002000     0.277574986000     0.777574986000     0          
H2       H      0.495079994000     0.288729995500     0.748294994000     0          
H2       H      0.495079994000     0.248294994000     0.788729995500     0          
C1       C      0.065009996500     0.065009996500     0.766384989000     0          
N1       N      0.052014999000     0.101175003000     0.750000000000     0          
N1       N      0.101175003000     0.052014999000     0.750000000000     0          
C2       C      0.081699997000     0.111644998000     0.721605003000     0          
C2       C      0.111644998000     0.081699997000     0.721605003000     0          
C3       C      0.042125001550     0.042125001550     0.798750013000     0          
H1       H      0.139510005500     0.079460002500     0.703484997000     0          
H1       H      0.079460002500     0.139510005500     0.703484997000     0          
H2       H      0.052795000500     0.052795000500     0.830350011500     0          
H2       H      0.007814999650     0.048250000900     0.795329988000     0          
H2       H      0.048250000900     0.007814999650     0.795329988000     0          
C1       C      0.315010011000     0.315010011000     0.983615011000     0          
N1       N      0.302015006500     0.351175010000     0.500000000000     0          
N1       N      0.351175010000     0.302015006500     0.500000000000     0          
C2       C      0.331699997000     0.361645013000     0.528395000850     0          
C2       C      0.361645013000     0.331699997000     0.528395000850     0          
C3       C      0.292124986500     0.292124986500     0.951249987000     0          
H1       H      0.389510005500     0.329459995000     0.546514999100     0          
H1       H      0.329459995000     0.389510005500     0.546514999100     0          
H2       H      0.269780010000     0.269780010000     0.966340005500     0          
H2       H      0.274325013000     0.314759999500     0.931324988500     0          
H2       H      0.314759999500     0.274325013000     0.931324988500     0          
C1       C      0.233614996000     0.065009996500     0.934989989000     0          
N1       N      0.250000000000     0.052014999000     0.898824990000     0          
N1       N      0.250000000000     0.101175003000     0.947984993500     0          
C2       C      0.278394997000     0.081699997000     0.888354987000     0          
C2       C      0.278394997000     0.111644998000     0.918300003000     0          
C3       C      0.201250002000     0.042125001550     0.957875013500     0          
H1       H      0.296514988000     0.139510005500     0.920540005000     0          
H1       H      0.296514988000     0.079460002500     0.860489994500     0          
H2       H      0.169650003500     0.052795000500     0.947205007000     0          
H2       H      0.204669997000     0.007814999650     0.951750010500     0          
H2       H      0.204669997000     0.048250000900     0.992184996500     0          
C1       C      0.479930013500     0.318405002500     0.681594997500     0          
N1       N      0.000000000000     0.302015006500     0.648825004500     0          
N1       N      0.000000000000     0.351175010000     0.697984993500     0          
C2       C      0.034775000050     0.325819999000     0.644235000000     0          
C2       C      0.034775000050     0.355765015000     0.674180001000     0          
C3       C      0.440295011000     0.302219987000     0.697779998000     0          
H1       H      0.056965001000     0.379875004500     0.680169999500     0          
H1       H      0.056965001000     0.319830000500     0.620125003000     0          
H2       H      0.413679987000     0.318309992500     0.681690007500     0          
H2       H      0.438439995000     0.267764985500     0.691795006500     0          
H2       H      0.438439995000     0.308205008500     0.732234999500     0          
Zn       Zn     0.125000000000     0.750000000000     0.000000000000     0          
Zn       Zn     0.375000000000     0.500000000000     0.250000000000     0          
Zn       Zn     0.125000000000     0.500000000000     0.250000000000     0          
Zn       Zn     0.375000000000     0.750000000000     0.000000000000     0          
Zn       Zn     0.000000000000     0.625000000000     0.250000000000     0          
Zn       Zn     0.250000000000     0.875000000000     0.000000000000     0          
Zn       Zn     0.250000000000     0.500000000000     0.125000000000     0          
Zn       Zn     0.000000000000     0.750000000000     0.375000000000     0          
Zn       Zn     0.250000000000     0.625000000000     0.000000000000     0          
Zn       Zn     0.000000000000     0.875000000000     0.250000000000     0          
Zn       Zn     0.000000000000     0.750000000000     0.125000000000     0          
Zn       Zn     0.250000000000     0.500000000000     0.375000000000     0          
C1       C      0.315010011000     0.983615011000     0.184990003500     0          
N1       N      0.302015006500     0.500000000000     0.148825004500     0          
N1       N      0.351175010000     0.500000000000     0.197984993500     0          
C2       C      0.331699997000     0.528395000850     0.138355002000     0          
C2       C      0.361645013000     0.528395000850     0.168300003000     0          
C3       C      0.292124986500     0.951249987000     0.207874998500     0          
H1       H      0.389510005500     0.546514999100     0.170540005000     0          
H1       H      0.329459995000     0.546514999100     0.110490001500     0          
H2       H      0.269780010000     0.966340005500     0.230220005000     0          
H2       H      0.274325013000     0.931324988500     0.185240000500     0          
H2       H      0.314759999500     0.931324988500     0.225675001500     0          
C1       C      0.068405002500     0.729929998500     0.431594997500     0          
N1       N      0.052014999000     0.750000000000     0.398824990000     0          
N1       N      0.101175003000     0.750000000000     0.447984993500     0          
C2       C      0.075819999000     0.784774989000     0.394234985000     0          
C2       C      0.105765000000     0.784774989000     0.424180001000     0          
C3       C      0.052220002000     0.690294996000     0.447780013000     0          
H1       H      0.129875004500     0.806964993500     0.430169999500     0          
H1       H      0.069830000500     0.806964993500     0.370124995500     0          
H2       H      0.027875000600     0.696695000000     0.472124994000     0          
H2       H      0.037985000750     0.671930000000     0.421579987000     0          
H2       H      0.078419998500     0.671930000000     0.462015003000     0          
C1       C      0.184990003500     0.516385000200     0.184990003500     0          
N1       N      0.197984993500     0.500000000000     0.148825004500     0          
N1       N      0.148825004500     0.500000000000     0.197984993500     0          
C2       C      0.168300003000     0.971605003000     0.138355002000     0          
C2       C      0.138355002000     0.971605003000     0.168300003000     0          
C3       C      0.207874998500     0.548749998200     0.207874998500     0          
H1       H      0.110490001500     0.953485012000     0.170540005000     0          
H1       H      0.170540005000     0.953485012000     0.110490001500     0          
H2       H      0.230220005000     0.533659998350     0.230220005000     0          
H2       H      0.225675001500     0.568674996500     0.185240000500     0          
H2       H      0.185240000500     0.568674996500     0.225675001500     0          
C1       C      0.431594997500     0.729929998500     0.431594997500     0          
N1       N      0.447984993500     0.750000000000     0.398824990000     0          
N1       N      0.398824990000     0.750000000000     0.447984993500     0          
C2       C      0.424180001000     0.784774989000     0.394234985000     0          
C2       C      0.394234985000     0.784774989000     0.424180001000     0          
C3       C      0.447780013000     0.690294996000     0.447780013000     0          
H1       H      0.370124995500     0.806964993500     0.430169999500     0          
H1       H      0.430169999500     0.806964993500     0.370124995500     0          
H2       H      0.431690007500     0.663680002000     0.431690007500     0          
H2       H      0.482235014500     0.688439995000     0.441794991500     0          
H2       H      0.441794991500     0.688439995000     0.482235014500     0          
C1       C      0.060770001500     0.744004994500     0.060770001500     0          
N1       N      0.052014999000     0.750000000000     0.101175003000     0          
N1       N      0.101175003000     0.750000000000     0.052014999000     0          
C2       C      0.089050002500     0.760394990500     0.118989996500     0          
C2       C      0.118989996500     0.760394990500     0.089050002500     0          
C3       C      0.029504999500     0.732154995000     0.029504999500     0          
H1       H      0.151545003000     0.767024994000     0.091499999000     0          
H1       H      0.091499999000     0.767024994000     0.151545003000     0          
H2       H      0.027574999250     0.697245002000     0.027574999250     0          
H2       H      0.498295009000     0.745079994000     0.038729999200     0          
H2       H      0.038729999200     0.745079994000     0.498295009000     0          
C1       C      0.312404990000     0.511584999950     0.312404990000     0          
N1       N      0.302015006500     0.500000000000     0.351175010000     0          
N1       N      0.351175010000     0.500000000000     0.302015006500     0          
C2       C      0.336214989500     0.979925006500     0.366154998500     0          
C2       C      0.366154998500     0.979925006500     0.336214989500     0          
C3       C      0.284375012000     0.534469999350     0.284375012000     0          
H1       H      0.396899998000     0.967110008000     0.336854994500     0          
H1       H      0.336854994500     0.967110008000     0.396899998000     0          
H2       H      0.265554994500     0.511714999550     0.265554994500     0          
H2       H      0.262849986500     0.554604999500     0.303285002500     0          
H2       H      0.303285002500     0.554604999500     0.262849986500     0          
C1       C      0.434989989000     0.766384989000     0.065009996500     0          
N1       N      0.447984993500     0.750000000000     0.101175003000     0          
N1       N      0.398824990000     0.750000000000     0.052014999000     0          
C2       C      0.418300003000     0.721605003000     0.111644998000     0          
C2       C      0.388354987000     0.721605003000     0.081699997000     0          
C3       C      0.457875013500     0.798750013000     0.042125001550     0          
H1       H      0.360489994500     0.703484997000     0.079460002500     0          
H1       H      0.420540005000     0.703484997000     0.139510005500     0          
H2       H      0.447205007000     0.830350011500     0.052795000500     0          
H2       H      0.492184996500     0.795329988000     0.048250000900     0          
H2       H      0.451750010500     0.795329988000     0.007814999650     0          
C1       C      0.184990003500     0.983615011000     0.315010011000     0          
N1       N      0.197984993500     0.500000000000     0.351175010000     0          
N1       N      0.148825004500     0.500000000000     0.302015006500     0          
C2       C      0.168300003000     0.528395000850     0.361645013000     0          
C2       C      0.138355002000     0.528395000850     0.331699997000     0          
C3       C      0.207874998500     0.951249987000     0.292124986500     0          
H1       H      0.110490001500     0.546514999100     0.329459995000     0          
H1       H      0.170540005000     0.546514999100     0.389510005500     0          
H2       H      0.230220005000     0.966340005500     0.269780010000     0          
H2       H      0.225675001500     0.931324988500     0.314759999500     0          
H2       H      0.185240000500     0.931324988500     0.274325013000     0          
C1       C      0.187594995000     0.812404990000     0.011584999950     0          
N1       N      0.197984993500     0.851175010000     0.000000000000     0          
N1       N      0.148825004500     0.802015006500     0.000000000000     0          
C2       C      0.163784995500     0.866154998500     0.479925006500     0          
C2       C      0.133845001500     0.836214989500     0.479925006500     0          
C3       C      0.215625003000     0.784375012000     0.034469999350     0          
H1       H      0.103100002000     0.836854994500     0.467110008000     0          
H1       H      0.163145005500     0.896899998000     0.467110008000     0          
H2       H      0.234445005500     0.765554994500     0.011714999550     0          
H2       H      0.237149998500     0.803285002500     0.054604999500     0          
H2       H      0.196714997500     0.762849986500     0.054604999500     0          
C1       C      0.437595010000     0.562405001500     0.238415003000     0          
N1       N      0.447984993500     0.601175003000     0.250000000000     0          
N1       N      0.398824990000     0.552014999000     0.250000000000     0          
C2       C      0.413785010500     0.616154998500     0.270074993500     0          
C2       C      0.383845001500     0.586214997000     0.270074993500     0          
C3       C      0.465624988000     0.534375000750     0.215529993000     0          
H1       H      0.353100002000     0.586855001500     0.282889992000     0          
H1       H      0.413145005500     0.646899998000     0.282889992000     0          
H2       H      0.461100012000     0.538899999100     0.181099996000     0          
H2       H      0.498825013500     0.541609998800     0.223989993500     0          
H2       H      0.458389997500     0.501174999985     0.223989993500     0          
C1       C      0.020069999600     0.681594997500     0.318405002500     0          
N1       N      0.000000000000     0.697984993500     0.351175010000     0          
N1       N      0.000000000000     0.648825004500     0.302015006500     0          
C2       C      0.465225011000     0.674180001000     0.355765015000     0          
C2       C      0.465225011000     0.644235000000     0.325819999000     0          
C3       C      0.059705000500     0.697779998000     0.302219987000     0          
H1       H      0.443035006500     0.620125003000     0.319830000500     0          
H1       H      0.443035006500     0.680169999500     0.379875004500     0          
H2       H      0.053305000000     0.722124994000     0.277875006000     0          
H2       H      0.078070000000     0.712015003000     0.328420013000     0          
H2       H      0.078070000000     0.671580001500     0.287984997000     0          
C1       C      0.233614996000     0.934989989000     0.065009996500     0          
N1       N      0.250000000000     0.947984993500     0.101175003000     0          
N1       N      0.250000000000     0.898824990000     0.052014999000     0          
C2       C      0.278394997000     0.918300003000     0.111644998000     0          
C2       C      0.278394997000     0.888354987000     0.081699997000     0          
C3       C      0.201250002000     0.957875013500     0.042125001550     0          
H1       H      0.296514988000     0.860489994500     0.079460002500     0          
H1       H      0.296514988000     0.920540005000     0.139510005500     0          
H2       H      0.169650003500     0.947205007000     0.052795000500     0          
H2       H      0.204669997000     0.992184996500     0.048250000900     0          
H2       H      0.204669997000     0.951750010500     0.007814999650     0          
C1       C      0.065009996500     0.934989989000     0.233614996000     0          
N1       N      0.052014999000     0.898824990000     0.250000000000     0          
N1       N      0.101175003000     0.947984993500     0.250000000000     0          
C2       C      0.081699997000     0.888354987000     0.278394997000     0          
C2       C      0.111644998000     0.918300003000     0.278394997000     0          
C3       C      0.042125001550     0.957875013500     0.201250002000     0          
H1       H      0.139510005500     0.920540005000     0.296514988000     0          
H1       H      0.079460002500     0.860489994500     0.296514988000     0          
H2       H      0.052795000500     0.947205007000     0.169650003500     0          
H2       H      0.007814999650     0.951750010500     0.204669997000     0          
H2       H      0.048250000900     0.992184996500     0.204669997000     0          
C1       C      0.315010011000     0.684990003500     0.016385000200     0          
N1       N      0.302015006500     0.648825004500     0.000000000000     0          
N1       N      0.351175010000     0.697984993500     0.000000000000     0          
C2       C      0.331699997000     0.638355002000     0.471605003000     0          
C2       C      0.361645013000     0.668300003000     0.471605003000     0          
C3       C      0.292124986500     0.707874998500     0.048749998200     0          
H1       H      0.389510005500     0.670540005000     0.453485012000     0          
H1       H      0.329459995000     0.610490001500     0.453485012000     0          
H2       H      0.269780010000     0.730220005000     0.033659998350     0          
H2       H      0.274325013000     0.685240000500     0.068674996500     0          
H2       H      0.314759999500     0.725675001500     0.068674996500     0          
C1       C      0.005994999800     0.689229995000     0.189229995000     0          
N1       N      0.000000000000     0.697984993500     0.148825004500     0          
N1       N      0.000000000000     0.648825004500     0.197984993500     0          
C2       C      0.489605009500     0.660950005000     0.131009996000     0          
C2       C      0.489605009500     0.631009996000     0.160950005000     0          
C3       C      0.017844999200     0.720495000500     0.220495000500     0          
H1       H      0.482975006000     0.598454997000     0.158500001000     0          
H1       H      0.482975006000     0.658500001000     0.098454997000     0          
H2       H      0.052754998000     0.722424999000     0.222424999000     0          
H2       H      0.004920000210     0.751704991000     0.211270004500     0          
H2       H      0.004920000210     0.711270004500     0.251704991000     0          
C1       C      0.266384989000     0.934989989000     0.434989989000     0          
N1       N      0.250000000000     0.947984993500     0.398824990000     0          
N1       N      0.250000000000     0.898824990000     0.447984993500     0          
C2       C      0.221605003000     0.918300003000     0.388354987000     0          
C2       C      0.221605003000     0.888354987000     0.418300003000     0          
C3       C      0.298750013000     0.957875013500     0.457875013500     0          
H1       H      0.203484997000     0.860489994500     0.420540005000     0          
H1       H      0.203484997000     0.920540005000     0.360489994500     0          
H2       H      0.330350011500     0.947205007000     0.447205007000     0          
H2       H      0.295329988000     0.992184996500     0.451750010500     0          
H2       H      0.295329988000     0.951750010500     0.492184996500     0          
C1       C      0.184990003500     0.684990003500     0.483615011000     0          
N1       N      0.197984993500     0.648825004500     0.000000000000     0          
N1       N      0.148825004500     0.697984993500     0.000000000000     0          
C2       C      0.168300003000     0.638355002000     0.028395000850     0          
C2       C      0.138355002000     0.668300003000     0.028395000850     0          
C3       C      0.207874998500     0.707874998500     0.451249987000     0          
H1       H      0.110490001500     0.670540005000     0.046514999100     0          
H1       H      0.170540005000     0.610490001500     0.046514999100     0          
H2       H      0.230220005000     0.730220005000     0.466340005500     0          
H2       H      0.225675001500     0.685240000500     0.431324988500     0          
H2       H      0.185240000500     0.725675001500     0.431324988500     0          
C1       C      0.431594997500     0.931594997500     0.270069986500     0          
N1       N      0.447984993500     0.898824990000     0.250000000000     0          
N1       N      0.398824990000     0.947984993500     0.250000000000     0          
C2       C      0.424180001000     0.894234985000     0.215224996000     0          
C2       C      0.394234985000     0.924180001000     0.215224996000     0          
C3       C      0.447780013000     0.947780013000     0.309704989000     0          
H1       H      0.370124995500     0.930169999500     0.193035006500     0          
H1       H      0.430169999500     0.870124995500     0.193035006500     0          
H2       H      0.431690007500     0.931690007500     0.336320013000     0          
H2       H      0.482235014500     0.941794991500     0.311560005000     0          
H2       H      0.441794991500     0.982235014500     0.311560005000     0          
C1       C      0.266384989000     0.565009996500     0.065009996500     0          
N1       N      0.250000000000     0.601175003000     0.052014999000     0          
N1       N      0.250000000000     0.552014999000     0.101175003000     0          
C2       C      0.221605003000     0.611644998000     0.081699997000     0          
C2       C      0.221605003000     0.581699997000     0.111644998000     0          
C3       C      0.298750013000     0.542125001550     0.042125001550     0          
H1       H      0.203484997000     0.579460002500     0.139510005500     0          
H1       H      0.203484997000     0.639510005500     0.079460002500     0          
H2       H      0.283659994500     0.519780000650     0.019780000650     0          
H2       H      0.318675011500     0.564759999500     0.024325000100     0          
H2       H      0.318675011500     0.524325000100     0.064759999500     0          
C1       C      0.494004994500     0.810770005000     0.310770005000     0          
N1       N      0.000000000000     0.851175010000     0.302015006500     0          
N1       N      0.000000000000     0.802015006500     0.351175010000     0          
C2       C      0.010394999750     0.868990004000     0.339049995000     0          
C2       C      0.010394999750     0.839049995000     0.368990004000     0          
C3       C      0.482154995000     0.779505014500     0.279505014500     0          
H1       H      0.017024999500     0.841500014000     0.401544988000     0          
H1       H      0.017024999500     0.901544988000     0.341500014000     0          
H2       H      0.447245002000     0.777574986000     0.277574986000     0          
H2       H      0.495079994000     0.788729995500     0.248294994000     0          
H2       H      0.495079994000     0.748294994000     0.288729995500     0          
C1       C      0.065009996500     0.565009996500     0.266384989000     0          
N1       N      0.052014999000     0.601175003000     0.250000000000     0          
N1       N      0.101175003000     0.552014999000     0.250000000000     0          
C2       C      0.081699997000     0.611644998000     0.221605003000     0          
C2       C      0.111644998000     0.581699997000     0.221605003000     0          
C3       C      0.042125001550     0.542125001550     0.298750013000     0          
H1       H      0.139510005500     0.579460002500     0.203484997000     0          
H1       H      0.079460002500     0.639510005500     0.203484997000     0          
H2       H      0.052795000500     0.552795000500     0.330350011500     0          
H2       H      0.007814999650     0.548250000900     0.295329988000     0          
H2       H      0.048250000900     0.507814999650     0.295329988000     0          
C1       C      0.315010011000     0.815010011000     0.483615011000     0          
N1       N      0.302015006500     0.851175010000     0.000000000000     0          
N1       N      0.351175010000     0.802015006500     0.000000000000     0          
C2       C      0.331699997000     0.861645013000     0.028395000850     0          
C2       C      0.361645013000     0.831699997000     0.028395000850     0          
C3       C      0.292124986500     0.792124986500     0.451249987000     0          
H1       H      0.389510005500     0.829459995000     0.046514999100     0          
H1       H      0.329459995000     0.889510005500     0.046514999100     0          
H2       H      0.269780010000     0.769780010000     0.466340005500     0          
H2       H      0.274325013000     0.814759999500     0.431324988500     0          
H2       H      0.314759999500     0.774325013000     0.431324988500     0          
C1       C      0.233614996000     0.565009996500     0.434989989000     0          
N1       N      0.250000000000     0.552014999000     0.398824990000     0          
N1       N      0.250000000000     0.601175003000     0.447984993500     0          
C2       C      0.278394997000     0.581699997000     0.388354987000     0          
C2       C      0.278394997000     0.611644998000     0.418300003000     0          
C3       C      0.201250002000     0.542125001550     0.457875013500     0          
H1       H      0.296514988000     0.639510005500     0.420540005000     0          
H1       H      0.296514988000     0.579460002500     0.360489994500     0          
H2       H      0.169650003500     0.552795000500     0.447205007000     0          
H2       H      0.204669997000     0.507814999650     0.451750010500     0          
H2       H      0.204669997000     0.548250000900     0.492184996500     0          
C1       C      0.479930013500     0.818405002500     0.181594997500     0          
N1       N      0.000000000000     0.802015006500     0.148825004500     0          
N1       N      0.000000000000     0.851175010000     0.197984993500     0          
C2       C      0.034775000050     0.825819999000     0.144235000000     0          
C2       C      0.034775000050     0.855765015000     0.174180001000     0          
C3       C      0.440295011000     0.802219987000     0.197779998000     0          
H1       H      0.056965001000     0.879875004500     0.180169999500     0          
H1       H      0.056965001000     0.819830000500     0.120125003000     0          
H2       H      0.413679987000     0.818309992500     0.181690007500     0          
H2       H      0.438439995000     0.767764985500     0.191795006500     0          
H2       H      0.438439995000     0.808205008500     0.232234999500     0          
Zn       Zn     0.125000000000     0.750000000000     0.500000000000     0          
Zn       Zn     0.375000000000     0.500000000000     0.750000000000     0          
Zn       Zn     0.125000000000     0.500000000000     0.750000000000     0          
Zn       Zn     0.375000000000     0.750000000000     0.500000000000     0          
Zn       Zn     0.000000000000     0.625000000000     0.750000000000     0          
Zn       Zn     0.250000000000     0.875000000000     0.500000000000     0          
Zn       Zn     0.250000000000     0.500000000000     0.625000000000     0          
Zn       Zn     0.000000000000     0.750000000000     0.875000000000     0          
Zn       Zn     0.250000000000     0.625000000000     0.500000000000     0          
Zn       Zn     0.000000000000     0.875000000000     0.750000000000     0          
Zn       Zn     0.000000000000     0.750000000000     0.625000000000     0          
Zn       Zn     0.250000000000     0.500000000000     0.875000000000     0          
C1       C      0.315010011000     0.983615011000     0.684990003500     0          
N1       N      0.302015006500     0.500000000000     0.648825004500     0          
N1       N      0.351175010000     0.500000000000     0.697984993500     0          
C2       C      0.331699997000     0.528395000850     0.638355002000     0          
C2       C      0.361645013000     0.528395000850     0.668300003000     0          
C3       C      0.292124986500     0.951249987000     0.707874998500     0          
H1       H      0.389510005500     0.546514999100     0.670540005000     0          
H1       H      0.329459995000     0.546514999100     0.610490001500     0          
H2       H      0.269780010000     0.966340005500     0.730220005000     0          
H2       H      0.274325013000     0.931324988500     0.685240000500     0          
H2       H      0.314759999500     0.931324988500     0.725675001500     0          
C1       C      0.068405002500     0.729929998500     0.931594997500     0          
N1       N      0.052014999000     0.750000000000     0.898824990000     0          
N1       N      0.101175003000     0.750000000000     0.947984993500     0          
C2       C      0.075819999000     0.784774989000     0.894234985000     0          
C2       C      0.105765000000     0.784774989000     0.924180001000     0          
C3       C      0.052220002000     0.690294996000     0.947780013000     0          
H1       H      0.129875004500     0.806964993500     0.930169999500     0          
H1       H      0.069830000500     0.806964993500     0.870124995500     0          
H2       H      0.027875000600     0.696695000000     0.972124994000     0          
H2       H      0.037985000750     0.671930000000     0.921579987000     0          
H2       H      0.078419998500     0.671930000000     0.962015003000     0          
C1       C      0.184990003500     0.516385000200     0.684990003500     0          
N1       N      0.197984993500     0.500000000000     0.648825004500     0          
N1       N      0.148825004500     0.500000000000     0.697984993500     0          
C2       C      0.168300003000     0.971605003000     0.638355002000     0          
C2       C      0.138355002000     0.971605003000     0.668300003000     0          
C3       C      0.207874998500     0.548749998200     0.707874998500     0          
H1       H      0.110490001500     0.953485012000     0.670540005000     0          
H1       H      0.170540005000     0.953485012000     0.610490001500     0          
H2       H      0.230220005000     0.533659998350     0.730220005000     0          
H2       H      0.225675001500     0.568674996500     0.685240000500     0          
H2       H      0.185240000500     0.568674996500     0.725675001500     0          
C1       C      0.431594997500     0.729929998500     0.931594997500     0          
N1       N      0.447984993500     0.750000000000     0.898824990000     0          
N1       N      0.398824990000     0.750000000000     0.947984993500     0          
C2       C      0.424180001000     0.784774989000     0.894234985000     0          
C2       C      0.394234985000     0.784774989000     0.924180001000     0          
C3       C      0.447780013000     0.690294996000     0.947780013000     0          
H1       H      0.370124995500     0.806964993500     0.930169999500     0          
H1       H      0.430169999500     0.806964993500     0.870124995500     0          
H2       H      0.431690007500     0.663680002000     0.931690007500     0          
H2       H      0.482235014500     0.688439995000     0.941794991500     0          
H2       H      0.441794991500     0.688439995000     0.982235014500     0          
C1       C      0.060770001500     0.744004994500     0.560770001500     0          
N1       N      0.052014999000     0.750000000000     0.601175003000     0          
N1       N      0.101175003000     0.750000000000     0.552014999000     0          
C2       C      0.089050002500     0.760394990500     0.618989996500     0          
C2       C      0.118989996500     0.760394990500     0.589050002500     0          
C3       C      0.029504999500     0.732154995000     0.529504999500     0          
H1       H      0.151545003000     0.767024994000     0.591499999000     0          
H1       H      0.091499999000     0.767024994000     0.651545003000     0          
H2       H      0.027574999250     0.697245002000     0.527574999250     0          
H2       H      0.498295009000     0.745079994000     0.538729999200     0          
H2       H      0.038729999200     0.745079994000     0.998295009000     0          
C1       C      0.312404990000     0.511584999950     0.812404990000     0          
N1       N      0.302015006500     0.500000000000     0.851175010000     0          
N1       N      0.351175010000     0.500000000000     0.802015006500     0          
C2       C      0.336214989500     0.979925006500     0.866154998500     0          
C2       C      0.366154998500     0.979925006500     0.836214989500     0          
C3       C      0.284375012000     0.534469999350     0.784375012000     0          
H1       H      0.396899998000     0.967110008000     0.836854994500     0          
H1       H      0.336854994500     0.967110008000     0.896899998000     0          
H2       H      0.265554994500     0.511714999550     0.765554994500     0          
H2       H      0.262849986500     0.554604999500     0.803285002500     0          
H2       H      0.303285002500     0.554604999500     0.762849986500     0          
C1       C      0.434989989000     0.766384989000     0.565009996500     0          
N1       N      0.447984993500     0.750000000000     0.601175003000     0          
N1       N      0.398824990000     0.750000000000     0.552014999000     0          
C2       C      0.418300003000     0.721605003000     0.611644998000     0          
C2       C      0.388354987000     0.721605003000     0.581699997000     0          
C3       C      0.457875013500     0.798750013000     0.542125001550     0          
H1       H      0.360489994500     0.703484997000     0.579460002500     0          
H1       H      0.420540005000     0.703484997000     0.639510005500     0          
H2       H      0.447205007000     0.830350011500     0.552795000500     0          
H2       H      0.492184996500     0.795329988000     0.548250000900     0          
H2       H      0.451750010500     0.795329988000     0.507814999650     0          
C1       C      0.184990003500     0.983615011000     0.815010011000     0          
N1       N      0.197984993500     0.500000000000     0.851175010000     0          
N1       N      0.148825004500     0.500000000000     0.802015006500     0          
C2       C      0.168300003000     0.528395000850     0.861645013000     0          
C2       C      0.138355002000     0.528395000850     0.831699997000     0          
C3       C      0.207874998500     0.951249987000     0.792124986500     0          
H1       H      0.110490001500     0.546514999100     0.829459995000     0          
H1       H      0.170540005000     0.546514999100     0.889510005500     0          
H2       H      0.230220005000     0.966340005500     0.769780010000     0          
H2       H      0.225675001500     0.931324988500     0.814759999500     0          
H2       H      0.185240000500     0.931324988500     0.774325013000     0          
C1       C      0.187594995000     0.812404990000     0.511584999950     0          
N1       N      0.197984993500     0.851175010000     0.500000000000     0          
N1       N      0.148825004500     0.802015006500     0.500000000000     0          
C2       C      0.163784995500     0.866154998500     0.979925006500     0          
C2       C      0.133845001500     0.836214989500     0.979925006500     0          
C3       C      0.215625003000     0.784375012000     0.534469999350     0          
H1       H      0.103100002000     0.836854994500     0.967110008000     0          
H1       H      0.163145005500     0.896899998000     0.967110008000     0          
H2       H      0.234445005500     0.765554994500     0.511714999550     0          
H2       H      0.237149998500     0.803285002500     0.554604999500     0          
H2       H      0.196714997500     0.762849986500     0.554604999500     0          
C1       C      0.437595010000     0.562405001500     0.738415003000     0          
N1       N      0.447984993500     0.601175003000     0.750000000000     0          
N1       N      0.398824990000     0.552014999000     0.750000000000     0          
C2       C      0.413785010500     0.616154998500     0.770074993500     0          
C2       C      0.383845001500     0.586214997000     0.770074993500     0          
C3       C      0.465624988000     0.534375000750     0.715529993000     0          
H1       H      0.353100002000     0.586855001500     0.782889992000     0          
H1       H      0.413145005500     0.646899998000     0.782889992000     0          
H2       H      0.461100012000     0.538899999100     0.681099996000     0          
H2       H      0.498825013500     0.541609998800     0.723989993500     0          
H2       H      0.458389997500     0.501174999985     0.723989993500     0          
C1       C      0.020069999600     0.681594997500     0.818405002500     0          
N1       N      0.000000000000     0.697984993500     0.851175010000     0          
N1       N      0.000000000000     0.648825004500     0.802015006500     0          
C2       C      0.465225011000     0.674180001000     0.855765015000     0          
C2       C      0.465225011000     0.644235000000     0.825819999000     0          
C3       C      0.059705000500     0.697779998000     0.802219987000     0          
H1       H      0.443035006500     0.620125003000     0.819830000500     0          
H1       H      0.443035006500     0.680169999500     0.879875004500     0          
H2       H      0.053305000000     0.722124994000     0.777875006000     0          
H2       H      0.078070000000     0.712015003000     0.828420013000     0          
H2       H      0.078070000000     0.671580001500     0.787984997000     0          
C1       C      0.233614996000     0.934989989000     0.565009996500     0          
N1       N      0.250000000000     0.947984993500     0.601175003000     0          
N1       N      0.250000000000     0.898824990000     0.552014999000     0          
C2       C      0.278394997000     0.918300003000     0.611644998000     0          
C2       C      0.278394997000     0.888354987000     0.581699997000     0          
C3       C      0.201250002000     0.957875013500     0.542125001550     0          
H1       H      0.296514988000     0.860489994500     0.579460002500     0          
H1       H      0.296514988000     0.920540005000     0.639510005500     0          
H2       H      0.169650003500     0.947205007000     0.552795000500     0          
H2       H      0.204669997000     0.992184996500     0.548250000900     0          
H2       H      0.204669997000     0.951750010500     0.507814999650     0          
C1       C      0.065009996500     0.934989989000     0.733614996000     0          
N1       N      0.052014999000     0.898824990000     0.750000000000     0          
N1       N      0.101175003000     0.947984993500     0.750000000000     0          
C2       C      0.081699997000     0.888354987000     0.778394997000     0          
C2       C      0.111644998000     0.918300003000     0.778394997000     0          
C3       C      0.042125001550     0.957875013500     0.701250002000     0          
H1       H      0.139510005500     0.920540005000     0.796514988000     0          
H1       H      0.079460002500     0.860489994500     0.796514988000     0          
H2       H      0.052795000500     0.947205007000     0.669650003500     0          
H2       H      0.007814999650     0.951750010500     0.704669997000     0          
H2       H      0.048250000900     0.992184996500     0.704669997000     0          
C1       C      0.315010011000     0.684990003500     0.516385000200     0          
N1       N      0.302015006500     0.648825004500     0.500000000000     0          
N1       N      0.351175010000     0.697984993500     0.500000000000     0          
C2       C      0.331699997000     0.638355002000     0.971605003000     0          
C2       C      0.361645013000     0.668300003000     0.971605003000     0          
C3       C      0.292124986500     0.707874998500     0.548749998200     0          
H1       H      0.389510005500     0.670540005000     0.953485012000     0          
H1       H      0.329459995000     0.610490001500     0.953485012000     0          
H2       H      0.269780010000     0.730220005000     0.533659998350     0          
H2       H      0.274325013000     0.685240000500     0.568674996500     0          
H2       H      0.314759999500     0.725675001500     0.568674996500     0          
C1       C      0.005994999800     0.689229995000     0.689229995000     0          
N1       N      0.000000000000     0.697984993500     0.648825004500     0          
N1       N      0.000000000000     0.648825004500     0.697984993500     0          
C2       C      0.489605009500     0.660950005000     0.631009996000     0          
C2       C      0.489605009500     0.631009996000     0.660950005000     0          
C3       C      0.017844999200     0.720495000500     0.720495000500     0          
H1       H      0.482975006000     0.598454997000     0.658500001000     0          
H1       H      0.482975006000     0.658500001000     0.598454997000     0          
H2       H      0.052754998000     0.722424999000     0.722424999000     0          
H2       H      0.004920000210     0.751704991000     0.711270004500     0          
H2       H      0.004920000210     0.711270004500     0.751704991000     0          
C1       C      0.266384989000     0.934989989000     0.934989989000     0          
N1       N      0.250000000000     0.947984993500     0.898824990000     0          
N1       N      0.250000000000     0.898824990000     0.947984993500     0          
C2       C      0.221605003000     0.918300003000     0.888354987000     0          
C2       C      0.221605003000     0.888354987000     0.918300003000     0          
C3       C      0.298750013000     0.957875013500     0.957875013500     0          
H1       H      0.203484997000     0.860489994500     0.920540005000     0          
H1       H      0.203484997000     0.920540005000     0.860489994500     0          
H2       H      0.330350011500     0.947205007000     0.947205007000     0          
H2       H      0.295329988000     0.992184996500     0.951750010500     0          
H2       H      0.295329988000     0.951750010500     0.992184996500     0          
C1       C      0.184990003500     0.684990003500     0.983615011000     0          
N1       N      0.197984993500     0.648825004500     0.500000000000     0          
N1       N      0.148825004500     0.697984993500     0.500000000000     0          
C2       C      0.168300003000     0.638355002000     0.528395000850     0          
C2       C      0.138355002000     0.668300003000     0.528395000850     0          
C3       C      0.207874998500     0.707874998500     0.951249987000     0          
H1       H      0.110490001500     0.670540005000     0.546514999100     0          
H1       H      0.170540005000     0.610490001500     0.546514999100     0          
H2       H      0.230220005000     0.730220005000     0.966340005500     0          
H2       H      0.225675001500     0.685240000500     0.931324988500     0          
H2       H      0.185240000500     0.725675001500     0.931324988500     0          
C1       C      0.431594997500     0.931594997500     0.770069986500     0          
N1       N      0.447984993500     0.898824990000     0.750000000000     0          
N1       N      0.398824990000     0.947984993500     0.750000000000     0          
C2       C      0.424180001000     0.894234985000     0.715224996000     0          
C2       C      0.394234985000     0.924180001000     0.715224996000     0          
C3       C      0.447780013000     0.947780013000     0.809704989000     0          
H1       H      0.370124995500     0.930169999500     0.693035006500     0          
H1       H      0.430169999500     0.870124995500     0.693035006500     0          
H2       H      0.431690007500     0.931690007500     0.836320013000     0          
H2       H      0.482235014500     0.941794991500     0.811560005000     0          
H2       H      0.441794991500     0.982235014500     0.811560005000     0          
C1       C      0.266384989000     0.565009996500     0.565009996500     0          
N1       N      0.250000000000     0.601175003000     0.552014999000     0          
N1       N      0.250000000000     0.552014999000     0.601175003000     0          
C2       C      0.221605003000     0.611644998000     0.581699997000     0          
C2       C      0.221605003000     0.581699997000     0.611644998000     0          
C3       C      0.298750013000     0.542125001550     0.542125001550     0          
H1       H      0.203484997000     0.579460002500     0.639510005500     0          
H1       H      0.203484997000     0.639510005500     0.579460002500     0          
H2       H      0.283659994500     0.519780000650     0.519780000650     0          
H2       H      0.318675011500     0.564759999500     0.524325000100     0          
H2       H      0.318675011500     0.524325000100     0.564759999500     0          
C1       C      0.494004994500     0.810770005000     0.810770005000     0          
N1       N      0.000000000000     0.851175010000     0.802015006500     0          
N1       N      0.000000000000     0.802015006500     0.851175010000     0          
C2       C      0.010394999750     0.868990004000     0.839049995000     0          
C2       C      0.010394999750     0.839049995000     0.868990004000     0          
C3       C      0.482154995000     0.779505014500     0.779505014500     0          
H1       H      0.017024999500     0.841500014000     0.901544988000     0          
H1       H      0.017024999500     0.901544988000     0.841500014000     0          
H2       H      0.447245002000     0.777574986000     0.777574986000     0          
H2       H      0.495079994000     0.788729995500     0.748294994000     0          
H2       H      0.495079994000     0.748294994000     0.788729995500     0          
C1       C      0.065009996500     0.565009996500     0.766384989000     0          
N1       N      0.052014999000     0.601175003000     0.750000000000     0          
N1       N      0.101175003000     0.552014999000     0.750000000000     0          
C2       C      0.081699997000     0.611644998000     0.721605003000     0          
C2       C      0.111644998000     0.581699997000     0.721605003000     0          
C3       C      0.042125001550     0.542125001550     0.798750013000     0          
H1       H      0.139510005500     0.579460002500     0.703484997000     0          
H1       H      0.079460002500     0.639510005500     0.703484997000     0          
H2       H      0.052795000500     0.552795000500     0.830350011500     0          
H2       H      0.007814999650     0.548250000900     0.795329988000     0          
H2       H      0.048250000900     0.507814999650     0.795329988000     0          
C1       C      0.315010011000     0.815010011000     0.983615011000     0          
N1       N      0.302015006500     0.851175010000     0.500000000000     0          
N1       N      0.351175010000     0.802015006500     0.500000000000     0          
C2       C      0.331699997000     0.861645013000     0.528395000850     0          
C2       C      0.361645013000     0.831699997000     0.528395000850     0          
C3       C      0.292124986500     0.792124986500     0.951249987000     0          
H1       H      0.389510005500     0.829459995000     0.546514999100     0          
H1       H      0.329459995000     0.889510005500     0.546514999100     0          
H2       H      0.269780010000     0.769780010000     0.966340005500     0          
H2       H      0.274325013000     0.814759999500     0.931324988500     0          
H2       H      0.314759999500     0.774325013000     0.931324988500     0          
C1       C      0.233614996000     0.565009996500     0.934989989000     0          
N1       N      0.250000000000     0.552014999000     0.898824990000     0          
N1       N      0.250000000000     0.601175003000     0.947984993500     0          
C2       C      0.278394997000     0.581699997000     0.888354987000     0          
C2       C      0.278394997000     0.611644998000     0.918300003000     0          
C3       C      0.201250002000     0.542125001550     0.957875013500     0          
H1       H      0.296514988000     0.639510005500     0.920540005000     0          
H1       H      0.296514988000     0.579460002500     0.860489994500     0          
H2       H      0.169650003500     0.552795000500     0.947205007000     0          
H2       H      0.204669997000     0.507814999650     0.951750010500     0          
H2       H      0.204669997000     0.548250000900     0.992184996500     0          
C1       C      0.479930013500     0.818405002500     0.681594997500     0          
N1       N      0.000000000000     0.802015006500     0.648825004500     0          
N1       N      0.000000000000     0.851175010000     0.697984993500     0          
C2       C      0.034775000050     0.825819999000     0.644235000000     0          
C2       C      0.034775000050     0.855765015000     0.674180001000     0          
C3       C      0.440295011000     0.802219987000     0.697779998000     0          
H1       H      0.056965001000     0.879875004500     0.680169999500     0          
H1       H      0.056965001000     0.819830000500     0.620125003000     0          
H2       H      0.413679987000     0.818309992500     0.681690007500     0          
H2       H      0.438439995000     0.767764985500     0.691795006500     0          
H2       H      0.438439995000     0.808205008500     0.732234999500     0          
Zn       Zn     0.625000000000     0.250000000000     0.000000000000     0          
Zn       Zn     0.875000000000     0.000000000000     0.250000000000     0          
Zn       Zn     0.625000000000     0.000000000000     0.250000000000     0          
Zn       Zn     0.875000000000     0.250000000000     0.000000000000     0          
Zn       Zn     0.500000000000     0.125000000000     0.250000000000     0          
Zn       Zn     0.750000000000     0.375000000000     0.000000000000     0          
Zn       Zn     0.750000000000     0.000000000000     0.125000000000     0          
Zn       Zn     0.500000000000     0.250000000000     0.375000000000     0          
Zn       Zn     0.750000000000     0.125000000000     0.000000000000     0          
Zn       Zn     0.500000000000     0.375000000000     0.250000000000     0          
Zn       Zn     0.500000000000     0.250000000000     0.125000000000     0          
Zn       Zn     0.750000000000     0.000000000000     0.375000000000     0          
C1       C      0.815010011000     0.483615011000     0.184990003500     0          
N1       N      0.802015006500     0.000000000000     0.148825004500     0          
N1       N      0.851175010000     0.000000000000     0.197984993500     0          
C2       C      0.831699997000     0.028395000850     0.138355002000     0          
C2       C      0.861645013000     0.028395000850     0.168300003000     0          
C3       C      0.792124986500     0.451249987000     0.207874998500     0          
H1       H      0.889510005500     0.046514999100     0.170540005000     0          
H1       H      0.829459995000     0.046514999100     0.110490001500     0          
H2       H      0.769780010000     0.466340005500     0.230220005000     0          
H2       H      0.774325013000     0.431324988500     0.185240000500     0          
H2       H      0.814759999500     0.431324988500     0.225675001500     0          
C1       C      0.568405002500     0.229929998500     0.431594997500     0          
N1       N      0.552014999000     0.250000000000     0.398824990000     0          
N1       N      0.601175003000     0.250000000000     0.447984993500     0          
C2       C      0.575819999000     0.284774989000     0.394234985000     0          
C2       C      0.605765000000     0.284774989000     0.424180001000     0          
C3       C      0.552220002000     0.190294996000     0.447780013000     0          
H1       H      0.629875004500     0.306964993500     0.430169999500     0          
H1       H      0.569830000500     0.306964993500     0.370124995500     0          
H2       H      0.527875000600     0.196695000000     0.472124994000     0          
H2       H      0.537985000750     0.171930000000     0.421579987000     0          
H2       H      0.578419998500     0.171930000000     0.462015003000     0          
C1       C      0.684990003500     0.016385000200     0.184990003500     0          
N1       N      0.697984993500     0.000000000000     0.148825004500     0          
N1       N      0.648825004500     0.000000000000     0.197984993500     0          
C2       C      0.668300003000     0.471605003000     0.138355002000     0          
C2       C      0.638355002000     0.471605003000     0.168300003000     0          
C3       C      0.707874998500     0.048749998200     0.207874998500     0          
H1       H      0.610490001500     0.453485012000     0.170540005000     0          
H1       H      0.670540005000     0.453485012000     0.110490001500     0          
H2       H      0.730220005000     0.033659998350     0.230220005000     0          
H2       H      0.725675001500     0.068674996500     0.185240000500     0          
H2       H      0.685240000500     0.068674996500     0.225675001500     0          
C1       C      0.931594997500     0.229929998500     0.431594997500     0          
N1       N      0.947984993500     0.250000000000     0.398824990000     0          
N1       N      0.898824990000     0.250000000000     0.447984993500     0          
C2       C      0.924180001000     0.284774989000     0.394234985000     0          
C2       C      0.894234985000     0.284774989000     0.424180001000     0          
C3       C      0.947780013000     0.190294996000     0.447780013000     0          
H1       H      0.870124995500     0.306964993500     0.430169999500     0          
H1       H      0.930169999500     0.306964993500     0.370124995500     0          
H2       H      0.931690007500     0.163680002000     0.431690007500     0          
H2       H      0.982235014500     0.188439995000     0.441794991500     0          
H2       H      0.941794991500     0.188439995000     0.482235014500     0          
C1       C      0.560770001500     0.244004994500     0.060770001500     0          
N1       N      0.552014999000     0.250000000000     0.101175003000     0          
N1       N      0.601175003000     0.250000000000     0.052014999000     0          
C2       C      0.589050002500     0.260394990500     0.118989996500     0          
C2       C      0.618989996500     0.260394990500     0.089050002500     0          
C3       C      0.529504999500     0.232154995000     0.029504999500     0          
H1       H      0.651545003000     0.267024994000     0.091499999000     0          
H1       H      0.591499999000     0.267024994000     0.151545003000     0          
H2       H      0.527574999250     0.197245002000     0.027574999250     0          
H2       H      0.998295009000     0.245079994000     0.038729999200     0          
H2       H      0.538729999200     0.245079994000     0.498295009000     0          
C1       C      0.812404990000     0.011584999950     0.312404990000     0          
N1       N      0.802015006500     0.000000000000     0.351175010000     0          
N1       N      0.851175010000     0.000000000000     0.302015006500     0          
C2       C      0.836214989500     0.479925006500     0.366154998500     0          
C2       C      0.866154998500     0.479925006500     0.336214989500     0          
C3       C      0.784375012000     0.034469999350     0.284375012000     0          
H1       H      0.896899998000     0.467110008000     0.336854994500     0          
H1       H      0.836854994500     0.467110008000     0.396899998000     0          
H2       H      0.765554994500     0.011714999550     0.265554994500     0          
H2       H      0.762849986500     0.054604999500     0.303285002500     0          
H2       H      0.803285002500     0.054604999500     0.262849986500     0          
C1       C      0.934989989000     0.266384989000     0.065009996500     0          
N1       N      0.947984993500     0.250000000000     0.101175003000     0          
N1       N      0.898824990000     0.250000000000     0.052014999000     0          
C2       C      0.918300003000     0.221605003000     0.111644998000     0          
C2       C      0.888354987000     0.221605003000     0.081699997000     0          
C3       C      0.957875013500     0.298750013000     0.042125001550     0          
H1       H      0.860489994500     0.203484997000     0.079460002500     0          
H1       H      0.920540005000     0.203484997000     0.139510005500     0          
H2       H      0.947205007000     0.330350011500     0.052795000500     0          
H2       H      0.992184996500     0.295329988000     0.048250000900     0          
H2       H      0.951750010500     0.295329988000     0.007814999650     0          
C1       C      0.684990003500     0.483615011000     0.315010011000     0          
N1       N      0.697984993500     0.000000000000     0.351175010000     0          
N1       N      0.648825004500     0.000000000000     0.302015006500     0          
C2       C      0.668300003000     0.028395000850     0.361645013000     0          
C2       C      0.638355002000     0.028395000850     0.331699997000     0          
C3       C      0.707874998500     0.451249987000     0.292124986500     0          
H1       H      0.610490001500     0.046514999100     0.329459995000     0          
H1       H      0.670540005000     0.046514999100     0.389510005500     0          
H2       H      0.730220005000     0.466340005500     0.269780010000     0          
H2       H      0.725675001500     0.431324988500     0.314759999500     0          
H2       H      0.685240000500     0.431324988500     0.274325013000     0          
C1       C      0.687594995000     0.312404990000     0.011584999950     0          
N1       N      0.697984993500     0.351175010000     0.000000000000     0          
N1       N      0.648825004500     0.302015006500     0.000000000000     0          
C2       C      0.663784995500     0.366154998500     0.479925006500     0          
C2       C      0.633845001500     0.336214989500     0.479925006500     0          
C3       C      0.715625003000     0.284375012000     0.034469999350     0          
H1       H      0.603100002000     0.336854994500     0.467110008000     0          
H1       H      0.663145005500     0.396899998000     0.467110008000     0          
H2       H      0.734445005500     0.265554994500     0.011714999550     0          
H2       H      0.737149998500     0.303285002500     0.054604999500     0          
H2       H      0.696714997500     0.262849986500     0.054604999500     0          
C1       C      0.937595010000     0.062405001500     0.238415003000     0          
N1       N      0.947984993500     0.101175003000     0.250000000000     0          
N1       N      0.898824990000     0.052014999000     0.250000000000     0          
C2       C      0.913785010500     0.116154998500     0.270074993500     0          
C2       C      0.883845001500     0.086214997000     0.270074993500     0          
C3       C      0.965624988000     0.034375000750     0.215529993000     0          
H1       H      0.853100002000     0.086855001500     0.282889992000     0          
H1       H      0.913145005500     0.146899998000     0.282889992000     0          
H2       H      0.961100012000     0.038899999100     0.181099996000     0          
H2       H      0.998825013500     0.041609998800     0.223989993500     0          
H2       H      0.958389997500     0.001174999985     0.223989993500     0          
C1       C      0.520069999600     0.181594997500     0.318405002500     0          
N1       N      0.500000000000     0.197984993500     0.351175010000     0          
N1       N      0.500000000000     0.148825004500     0.302015006500     0          
C2       C      0.965225011000     0.174180001000     0.355765015000     0          
C2       C      0.965225011000     0.144235000000     0.325819999000     0          
C3       C      0.559705000500     0.197779998000     0.302219987000     0          
H1       H      0.943035006500     0.120125003000     0.319830000500     0          
H1       H      0.943035006500     0.180169999500     0.379875004500     0          
H2       H      0.553305000000     0.222124994000     0.277875006000     0          
H2       H      0.578070000000     0.212015003000     0.328420013000     0          
H2       H      0.578070000000     0.171580001500     0.287984997000     0          
C1       C      0.733614996000     0.434989989000     0.065009996500     0          
N1       N      0.750000000000     0.447984993500     0.101175003000     0          
N1       N      0.750000000000     0.398824990000     0.052014999000     0          
C2       C      0.778394997000     0.418300003000     0.111644998000     0          
C2       C      0.778394997000     0.388354987000     0.081699997000     0          
C3       C      0.701250002000     0.457875013500     0.042125001550     0          
H1       H      0.796514988000     0.360489994500     0.079460002500     0          
H1       H      0.796514988000     0.420540005000     0.139510005500     0          
H2       H      0.669650003500     0.447205007000     0.052795000500     0          
H2       H      0.704669997000     0.492184996500     0.048250000900     0          
H2       H      0.704669997000     0.451750010500     0.007814999650     0          
C1       C      0.565009996500     0.434989989000     0.233614996000     0          
N1       N      0.552014999000     0.398824990000     0.250000000000     0          
N1       N      0.601175003000     0.447984993500     0.250000000000     0          
C2       C      0.581699997000     0.388354987000     0.278394997000     0          
C2       C      0.611644998000     0.418300003000     0.278394997000     0          
C3       C      0.542125001550     0.457875013500     0.201250002000     0          
H1       H      0.639510005500     0.420540005000     0.296514988000     0          
H1       H      0.579460002500     0.360489994500     0.296514988000     0          
H2       H      0.552795000500     0.447205007000     0.169650003500     0          
H2       H      0.507814999650     0.451750010500     0.204669997000     0          
H2       H      0.548250000900     0.492184996500     0.204669997000     0          
C1       C      0.815010011000     0.184990003500     0.016385000200     0          
N1       N      0.802015006500     0.148825004500     0.000000000000     0          
N1       N      0.851175010000     0.197984993500     0.000000000000     0          
C2       C      0.831699997000     0.138355002000     0.471605003000     0          
C2       C      0.861645013000     0.168300003000     0.471605003000     0          
C3       C      0.792124986500     0.207874998500     0.048749998200     0          
H1       H      0.889510005500     0.170540005000     0.453485012000     0          
H1       H      0.829459995000     0.110490001500     0.453485012000     0          
H2       H      0.769780010000     0.230220005000     0.033659998350     0          
H2       H      0.774325013000     0.185240000500     0.068674996500     0          
H2       H      0.814759999500     0.225675001500     0.068674996500     0          
C1       C      0.505994999800     0.189229995000     0.189229995000     0          
N1       N      0.500000000000     0.197984993500     0.148825004500     0          
N1       N      0.500000000000     0.148825004500     0.197984993500     0          
C2       C      0.989605009500     0.160950005000     0.131009996000     0          
C2       C      0.989605009500     0.131009996000     0.160950005000     0          
C3       C      0.517844999200     0.220495000500     0.220495000500     0          
H1       H      0.982975006000     0.098454997000     0.158500001000     0          
H1       H      0.982975006000     0.158500001000     0.098454997000     0          
H2       H      0.552754998000     0.222424999000     0.222424999000     0          
H2       H      0.504920000210     0.251704991000     0.211270004500     0          
H2       H      0.504920000210     0.211270004500     0.251704991000     0          
C1       C      0.766384989000     0.434989989000     0.434989989000     0          
N1       N      0.750000000000     0.447984993500     0.398824990000     0          
N1       N      0.750000000000     0.398824990000     0.447984993500     0          
C2       C      0.721605003000     0.418300003000     0.388354987000     0          
C2       C      0.721605003000     0.388354987000     0.418300003000     0          
C3       C      0.798750013000     0.457875013500     0.457875013500     0          
H1       H      0.703484997000     0.360489994500     0.420540005000     0          
H1       H      0.703484997000     0.420540005000     0.360489994500     0          
H2       H      0.830350011500     0.447205007000     0.447205007000     0          
H2       H      0.795329988000     0.492184996500     0.451750010500     0          
H2       H      0.795329988000     0.451750010500     0.492184996500     0          
C1       C      0.684990003500     0.184990003500     0.483615011000     0          
N1       N      0.697984993500     0.148825004500     0.000000000000     0          
N1       N      0.648825004500     0.197984993500     0.000000000000     0          
C2       C      0.668300003000     0.138355002000     0.028395000850     0          
C2       C      0.638355002000     0.168300003000     0.028395000850     0          
C3       C      0.707874998500     0.207874998500     0.451249987000     0          
H1       H      0.610490001500     0.170540005000     0.046514999100     0          
H1       H      0.670540005000     0.110490001500     0.046514999100     0          
H2       H      0.730220005000     0.230220005000     0.466340005500     0          
H2       H      0.725675001500     0.185240000500     0.431324988500     0          
H2       H      0.685240000500     0.225675001500     0.431324988500     0          
C1       C      0.931594997500     0.431594997500     0.270069986500     0          
N1       N      0.947984993500     0.398824990000     0.250000000000     0          
N1       N      0.898824990000     0.447984993500     0.250000000000     0          
C2       C      0.924180001000     0.394234985000     0.215224996000     0          
C2       C      0.894234985000     0.424180001000     0.215224996000     0          
C3       C      0.947780013000     0.447780013000     0.309704989000     0          
H1       H      0.870124995500     0.430169999500     0.193035006500     0          
H1       H      0.930169999500     0.370124995500     0.193035006500     0          
H2       H      0.931690007500     0.431690007500     0.336320013000     0          
H2       H      0.982235014500     0.441794991500     0.311560005000     0          
H2       H      0.941794991500     0.482235014500     0.311560005000     0          
C1       C      0.766384989000     0.065009996500     0.065009996500     0          
N1       N      0.750000000000     0.101175003000     0.052014999000     0          
N1       N      0.750000000000     0.052014999000     0.101175003000     0          
C2       C      0.721605003000     0.111644998000     0.081699997000     0          
C2       C      0.721605003000     0.081699997000     0.111644998000     0          
C3       C      0.798750013000     0.042125001550     0.042125001550     0          
H1       H      0.703484997000     0.079460002500     0.139510005500     0          
H1       H      0.703484997000     0.139510005500     0.079460002500     0          
H2       H      0.783659994500     0.019780000650     0.019780000650     0          
H2       H      0.818675011500     0.064759999500     0.024325000100     0          
H2       H      0.818675011500     0.024325000100     0.064759999500     0          
C1       C      0.994004994500     0.310770005000     0.310770005000     0          
N1       N      0.500000000000     0.351175010000     0.302015006500     0          
N1       N      0.500000000000     0.302015006500     0.351175010000     0          
C2       C      0.510394999750     0.368990004000     0.339049995000     0          
C2       C      0.510394999750     0.339049995000     0.368990004000     0          
C3       C      0.982154995000     0.279505014500     0.279505014500     0          
H1       H      0.517024999500     0.341500014000     0.401544988000     0          
H1       H      0.517024999500     0.401544988000     0.341500014000     0          
H2       H      0.947245002000     0.277574986000     0.277574986000     0          
H2       H      0.995079994000     0.288729995500     0.248294994000     0          
H2       H      0.995079994000     0.248294994000     0.288729995500     0          
C1       C      0.565009996500     0.065009996500     0.266384989000     0          
N1       N      0.552014999000     0.101175003000     0.250000000000     0          
N1       N      0.601175003000     0.052014999000     0.250000000000     0          
C2       C      0.581699997000     0.111644998000     0.221605003000     0          
C2       C      0.611644998000     0.081699997000     0.221605003000     0          
C3       C      0.542125001550     0.042125001550     0.298750013000     0          
H1       H      0.639510005500     0.079460002500     0.203484997000     0          
H1       H      0.579460002500     0.139510005500     0.203484997000     0          
H2       H      0.552795000500     0.052795000500     0.330350011500     0          
H2       H      0.507814999650     0.048250000900     0.295329988000     0          
H2       H      0.548250000900     0.007814999650     0.295329988000     0          
C1       C      0.815010011000     0.315010011000     0.483615011000     0          
N1       N      0.802015006500     0.351175010000     0.000000000000     0          
N1       N      0.851175010000     0.302015006500     0.000000000000     0          
C2       C      0.831699997000     0.361645013000     0.028395000850     0          
C2       C      0.861645013000     0.331699997000     0.028395000850     0          
C3       C      0.792124986500     0.292124986500     0.451249987000     0          
H1       H      0.889510005500     0.329459995000     0.046514999100     0          
H1       H      0.829459995000     0.389510005500     0.046514999100     0          
H2       H      0.769780010000     0.269780010000     0.466340005500     0          
H2       H      0.774325013000     0.314759999500     0.431324988500     0          
H2       H      0.814759999500     0.274325013000     0.431324988500     0          
C1       C      0.733614996000     0.065009996500     0.434989989000     0          
N1       N      0.750000000000     0.052014999000     0.398824990000     0          
N1       N      0.750000000000     0.101175003000     0.447984993500     0          
C2       C      0.778394997000     0.081699997000     0.388354987000     0          
C2       C      0.778394997000     0.111644998000     0.418300003000     0          
C3       C      0.701250002000     0.042125001550     0.457875013500     0          
H1       H      0.796514988000     0.139510005500     0.420540005000     0          
H1       H      0.796514988000     0.079460002500     0.360489994500     0          
H2       H      0.669650003500     0.052795000500     0.447205007000     0          
H2       H      0.704669997000     0.007814999650     0.451750010500     0          
H2       H      0.704669997000     0.048250000900     0.492184996500     0          
C1       C      0.979930013500     0.318405002500     0.181594997500     0          
N1       N      0.500000000000     0.302015006500     0.148825004500     0          
N1       N      0.500000000000     0.351175010000     0.197984993500     0          
C2       C      0.534775000050     0.325819999000     0.144235000000     0          
C2       C      0.534775000050     0.355765015000     0.174180001000     0          
C3       C      0.940295011000     0.302219987000     0.197779998000     0          
H1       H      0.556965001000     0.379875004500     0.180169999500     0          
H1       H      0.556965001000     0.319830000500     0.120125003000     0          
H2       H      0.913679987000     0.318309992500     0.181690007500     0          
H2       H      0.938439995000     0.267764985500     0.191795006500     0          
H2       H      0.938439995000     0.308205008500     0.232234999500     0          
Zn       Zn     0.625000000000     0.250000000000     0.500000000000     0          
Zn       Zn     0.875000000000     0.000000000000     0.750000000000     0          
Zn       Zn     0.625000000000     0.000000000000     0.750000000000     0          
Zn       Zn     0.875000000000     0.250000000000     0.500000000000     0          
Zn       Zn     0.500000000000     0.125000000000     0.750000000000     0          
Zn       Zn     0.750000000000     0.375000000000     0.500000000000     0          
Zn       Zn     0.750000000000     0.000000000000     0.625000000000     0          
Zn       Zn     0.500000000000     0.250000000000     0.875000000000     0          
Zn       Zn     0.750000000000     0.125000000000     0.500000000000     0          
Zn       Zn     0.500000000000     0.375000000000     0.750000000000     0          
Zn       Zn     0.500000000000     0.250000000000     0.625000000000     0          
Zn       Zn     0.750000000000     0.000000000000     0.875000000000     0          
C1       C      0.815010011000     0.483615011000     0.684990003500     0          
N1       N      0.802015006500     0.000000000000     0.648825004500     0          
N1       N      0.851175010000     0.000000000000     0.697984993500     0          
C2       C      0.831699997000     0.028395000850     0.638355002000     0          
C2       C      0.861645013000     0.028395000850     0.668300003000     0          
C3       C      0.792124986500     0.451249987000     0.707874998500     0          
H1       H      0.889510005500     0.046514999100     0.670540005000     0          
H1       H      0.829459995000     0.046514999100     0.610490001500     0          
H2       H      0.769780010000     0.466340005500     0.730220005000     0          
H2       H      0.774325013000     0.431324988500     0.685240000500     0          
H2       H      0.814759999500     0.431324988500     0.725675001500     0          
C1       C      0.568405002500     0.229929998500     0.931594997500     0          
N1       N      0.552014999000     0.250000000000     0.898824990000     0          
N1       N      0.601175003000     0.250000000000     0.947984993500     0          
C2       C      0.575819999000     0.284774989000     0.894234985000     0          
C2       C      0.605765000000     0.284774989000     0.924180001000     0          
C3       C      0.552220002000     0.190294996000     0.947780013000     0          
H1       H      0.629875004500     0.306964993500     0.930169999500     0          
H1       H      0.569830000500     0.306964993500     0.870124995500     0          
H2       H      0.527875000600     0.196695000000     0.972124994000     0          
H2       H      0.537985000750     0.171930000000     0.921579987000     0          
H2       H      0.578419998500     0.171930000000     0.962015003000     0          
C1       C      0.684990003500     0.016385000200     0.684990003500     0          
N1       N      0.697984993500     0.000000000000     0.648825004500     0          
N1       N      0.648825004500     0.000000000000     0.697984993500     0          
C2       C      0.668300003000     0.471605003000     0.638355002000     0          
C2       C      0.638355002000     0.471605003000     0.668300003000     0          
C3       C      0.707874998500     0.048749998200     0.707874998500     0          
H1       H      0.610490001500     0.453485012000     0.670540005000     0          
H1       H      0.670540005000     0.453485012000     0.610490001500     0          
H2       H      0.730220005000     0.033659998350     0.730220005000     0          
H2       H      0.725675001500     0.068674996500     0.685240000500     0          
H2       H      0.685240000500     0.068674996500     0.725675001500     0          
C1       C      0.931594997500     0.229929998500     0.931594997500     0          
N1       N      0.947984993500     0.250000000000     0.898824990000     0          
N1       N      0.898824990000     0.250000000000     0.947984993500     0          
C2       C      0.924180001000     0.284774989000     0.894234985000     0          
C2       C      0.894234985000     0.284774989000     0.924180001000     0          
C3       C      0.947780013000     0.190294996000     0.947780013000     0          
H1       H      0.870124995500     0.306964993500     0.930169999500     0          
H1       H      0.930169999500     0.306964993500     0.870124995500     0          
H2       H      0.931690007500     0.163680002000     0.931690007500     0          
H2       H      0.982235014500     0.188439995000     0.941794991500     0          
H2       H      0.941794991500     0.188439995000     0.982235014500     0          
C1       C      0.560770001500     0.244004994500     0.560770001500     0          
N1       N      0.552014999000     0.250000000000     0.601175003000     0          
N1       N      0.601175003000     0.250000000000     0.552014999000     0          
C2       C      0.589050002500     0.260394990500     0.618989996500     0          
C2       C      0.618989996500     0.260394990500     0.589050002500     0          
C3       C      0.529504999500     0.232154995000     0.529504999500     0          
H1       H      0.651545003000     0.267024994000     0.591499999000     0          
H1       H      0.591499999000     0.267024994000     0.651545003000     0          
H2       H      0.527574999250     0.197245002000     0.527574999250     0          
H2       H      0.998295009000     0.245079994000     0.538729999200     0          
H2       H      0.538729999200     0.245079994000     0.998295009000     0          
C1       C      0.812404990000     0.011584999950     0.812404990000     0          
N1       N      0.802015006500     0.000000000000     0.851175010000     0          
N1       N      0.851175010000     0.000000000000     0.802015006500     0          
C2       C      0.836214989500     0.479925006500     0.866154998500     0          
C2       C      0.866154998500     0.479925006500     0.836214989500     0          
C3       C      0.784375012000     0.034469999350     0.784375012000     0          
H1       H      0.896899998000     0.467110008000     0.836854994500     0          
H1       H      0.836854994500     0.467110008000     0.896899998000     0          
H2       H      0.765554994500     0.011714999550     0.765554994500     0          
H2       H      0.762849986500     0.054604999500     0.803285002500     0          
H2       H      0.803285002500     0.054604999500     0.762849986500     0          
C1       C      0.934989989000     0.266384989000     0.565009996500     0          
N1       N      0.947984993500     0.250000000000     0.601175003000     0          
N1       N      0.898824990000     0.250000000000     0.552014999000     0          
C2       C      0.918300003000     0.221605003000     0.611644998000     0          
C2       C      0.888354987000     0.221605003000     0.581699997000     0          
C3       C      0.957875013500     0.298750013000     0.542125001550     0          
H1       H      0.860489994500     0.203484997000     0.579460002500     0          
H1       H      0.920540005000     0.203484997000     0.639510005500     0          
H2       H      0.947205007000     0.330350011500     0.552795000500     0          
H2       H      0.992184996500     0.295329988000     0.548250000900     0          
H2       H      0.951750010500     0.295329988000     0.507814999650     0          
C1       C      0.684990003500     0.483615011000     0.815010011000     0          
N1       N      0.697984993500     0.000000000000     0.851175010000     0          
N1       N      0.648825004500     0.000000000000     0.802015006500     0          
C2       C      0.668300003000     0.028395000850     0.861645013000     0          
C2       C      0.638355002000     0.028395000850     0.831699997000     0          
C3       C      0.707874998500     0.451249987000     0.792124986500     0          
H1       H      0.610490001500     0.046514999100     0.829459995000     0          
H1       H      0.670540005000     0.046514999100     0.889510005500     0          
H2       H      0.730220005000     0.466340005500     0.769780010000     0          
H2       H      0.725675001500     0.431324988500     0.814759999500     0          
H2       H      0.685240000500     0.431324988500     0.774325013000     0          
C1       C      0.687594995000     0.312404990000     0.511584999950     0          
N1       N      0.697984993500     0.351175010000     0.500000000000     0          
N1       N      0.648825004500     0.302015006500     0.500000000000     0          
C2       C      0.663784995500     0.366154998500     0.979925006500     0          
C2       C      0.633845001500     0.336214989500     0.979925006500     0          
C3       C      0.715625003000     0.284375012000     0.534469999350     0          
H1       H      0.603100002000     0.336854994500     0.967110008000     0          
H1       H      0.663145005500     0.396899998000     0.967110008000     0          
H2       H      0.734445005500     0.265554994500     0.511714999550     0          
H2       H      0.737149998500     0.303285002500     0.554604999500     0          
H2       H      0.696714997500     0.262849986500     0.554604999500     0          
C1       C      0.937595010000     0.062405001500     0.738415003000     0          
N1       N      0.947984993500     0.101175003000     0.750000000000     0          
N1       N      0.898824990000     0.052014999000     0.750000000000     0          
C2       C      0.913785010500     0.116154998500     0.770074993500     0          
C2       C      0.883845001500     0.086214997000     0.770074993500     0          
C3       C      0.965624988000     0.034375000750     0.715529993000     0          
H1       H      0.853100002000     0.086855001500     0.782889992000     0          
H1       H      0.913145005500     0.146899998000     0.782889992000     0          
H2       H      0.961100012000     0.038899999100     0.681099996000     0          
H2       H      0.998825013500     0.041609998800     0.723989993500     0          
H2       H      0.958389997500     0.001174999985     0.723989993500     0          
C1       C      0.520069999600     0.181594997500     0.818405002500     0          
N1       N      0.500000000000     0.197984993500     0.851175010000     0          
N1       N      0.500000000000     0.148825004500     0.802015006500     0          
C2       C      0.965225011000     0.174180001000     0.855765015000     0          
C2       C      0.965225011000     0.144235000000     0.825819999000     0          
C3       C      0.559705000500     0.197779998000     0.802219987000     0          
H1       H      0.943035006500     0.120125003000     0.819830000500     0          
H1       H      0.943035006500     0.180169999500     0.879875004500     0          
H2       H      0.553305000000     0.222124994000     0.777875006000     0          
H2       H      0.578070000000     0.212015003000     0.828420013000     0          
H2       H      0.578070000000     0.171580001500     0.787984997000     0          
C1       C      0.733614996000     0.434989989000     0.565009996500     0          
N1       N      0.750000000000     0.447984993500     0.601175003000     0          
N1       N      0.750000000000     0.398824990000     0.552014999000     0          
C2       C      0.778394997000     0.418300003000     0.611644998000     0          
C2       C      0.778394997000     0.388354987000     0.581699997000     0          
C3       C      0.701250002000     0.457875013500     0.542125001550     0          
H1       H      0.796514988000     0.360489994500     0.579460002500     0          
H1       H      0.796514988000     0.420540005000     0.639510005500     0          
H2       H      0.669650003500     0.447205007000     0.552795000500     0          
H2       H      0.704669997000     0.492184996500     0.548250000900     0          
H2       H      0.704669997000     0.451750010500     0.507814999650     0          
C1       C      0.565009996500     0.434989989000     0.733614996000     0          
N1       N      0.552014999000     0.398824990000     0.750000000000     0          
N1       N      0.601175003000     0.447984993500     0.750000000000     0          
C2       C      0.581699997000     0.388354987000     0.778394997000     0          
C2       C      0.611644998000     0.418300003000     0.778394997000     0          
C3       C      0.542125001550     0.457875013500     0.701250002000     0          
H1       H      0.639510005500     0.420540005000     0.796514988000     0          
H1       H      0.579460002500     0.360489994500     0.796514988000     0          
H2       H      0.552795000500     0.447205007000     0.669650003500     0          
H2       H      0.507814999650     0.451750010500     0.704669997000     0          
H2       H      0.548250000900     0.492184996500     0.704669997000     0          
C1       C      0.815010011000     0.184990003500     0.516385000200     0          
N1       N      0.802015006500     0.148825004500     0.500000000000     0          
N1       N      0.851175010000     0.197984993500     0.500000000000     0          
C2       C      0.831699997000     0.138355002000     0.971605003000     0          
C2       C      0.861645013000     0.168300003000     0.971605003000     0          
C3       C      0.792124986500     0.207874998500     0.548749998200     0          
H1       H      0.889510005500     0.170540005000     0.953485012000     0          
H1       H      0.829459995000     0.110490001500     0.953485012000     0          
H2       H      0.769780010000     0.230220005000     0.533659998350     0          
H2       H      0.774325013000     0.185240000500     0.568674996500     0          
H2       H      0.814759999500     0.225675001500     0.568674996500     0          
C1       C      0.505994999800     0.189229995000     0.689229995000     0          
N1       N      0.500000000000     0.197984993500     0.648825004500     0          
N1       N      0.500000000000     0.148825004500     0.697984993500     0          
C2       C      0.989605009500     0.160950005000     0.631009996000     0          
C2       C      0.989605009500     0.131009996000     0.660950005000     0          
C3       C      0.517844999200     0.220495000500     0.720495000500     0          
H1       H      0.982975006000     0.098454997000     0.658500001000     0          
H1       H      0.982975006000     0.158500001000     0.598454997000     0          
H2       H      0.552754998000     0.222424999000     0.722424999000     0          
H2       H      0.504920000210     0.251704991000     0.711270004500     0          
H2       H      0.504920000210     0.211270004500     0.751704991000     0          
C1       C      0.766384989000     0.434989989000     0.934989989000     0          
N1       N      0.750000000000     0.447984993500     0.898824990000     0          
N1       N      0.750000000000     0.398824990000     0.947984993500     0          
C2       C      0.721605003000     0.418300003000     0.888354987000     0          
C2       C      0.721605003000     0.388354987000     0.918300003000     0          
C3       C      0.798750013000     0.457875013500     0.957875013500     0          
H1       H      0.703484997000     0.360489994500     0.920540005000     0          
H1       H      0.703484997000     0.420540005000     0.860489994500     0          
H2       H      0.830350011500     0.447205007000     0.947205007000     0          
H2       H      0.795329988000     0.492184996500     0.951750010500     0          
H2       H      0.795329988000     0.451750010500     0.992184996500     0          
C1       C      0.684990003500     0.184990003500     0.983615011000     0          
N1       N      0.697984993500     0.148825004500     0.500000000000     0          
N1       N      0.648825004500     0.197984993500     0.500000000000     0          
C2       C      0.668300003000     0.138355002000     0.528395000850     0          
C2       C      0.638355002000     0.168300003000     0.528395000850     0          
C3       C      0.707874998500     0.207874998500     0.951249987000     0          
H1       H      0.610490001500     0.170540005000     0.546514999100     0          
H1       H      0.670540005000     0.110490001500     0.546514999100     0          
H2       H      0.730220005000     0.230220005000     0.966340005500     0          
H2       H      0.725675001500     0.185240000500     0.931324988500     0          
H2       H      0.685240000500     0.225675001500     0.931324988500     0          
C1       C      0.931594997500     0.431594997500     0.770069986500     0          
N1       N      0.947984993500     0.398824990000     0.750000000000     0          
N1       N      0.898824990000     0.447984993500     0.750000000000     0          
C2       C      0.924180001000     0.394234985000     0.715224996000     0          
C2       C      0.894234985000     0.424180001000     0.715224996000     0          
C3       C      0.947780013000     0.447780013000     0.809704989000     0          
H1       H      0.870124995500     0.430169999500     0.693035006500     0          
H1       H      0.930169999500     0.370124995500     0.693035006500     0          
H2       H      0.931690007500     0.431690007500     0.836320013000     0          
H2       H      0.982235014500     0.441794991500     0.811560005000     0          
H2       H      0.941794991500     0.482235014500     0.811560005000     0          
C1       C      0.766384989000     0.065009996500     0.565009996500     0          
N1       N      0.750000000000     0.101175003000     0.552014999000     0          
N1       N      0.750000000000     0.052014999000     0.601175003000     0          
C2       C      0.721605003000     0.111644998000     0.581699997000     0          
C2       C      0.721605003000     0.081699997000     0.611644998000     0          
C3       C      0.798750013000     0.042125001550     0.542125001550     0          
H1       H      0.703484997000     0.079460002500     0.639510005500     0          
H1       H      0.703484997000     0.139510005500     0.579460002500     0          
H2       H      0.783659994500     0.019780000650     0.519780000650     0          
H2       H      0.818675011500     0.064759999500     0.524325000100     0          
H2       H      0.818675011500     0.024325000100     0.564759999500     0          
C1       C      0.994004994500     0.310770005000     0.810770005000     0          
N1       N      0.500000000000     0.351175010000     0.802015006500     0          
N1       N      0.500000000000     0.302015006500     0.851175010000     0          
C2       C      0.510394999750     0.368990004000     0.839049995000     0          
C2       C      0.510394999750     0.339049995000     0.868990004000     0          
C3       C      0.982154995000     0.279505014500     0.779505014500     0          
H1       H      0.517024999500     0.341500014000     0.901544988000     0          
H1       H      0.517024999500     0.401544988000     0.841500014000     0          
H2       H      0.947245002000     0.277574986000     0.777574986000     0          
H2       H      0.995079994000     0.288729995500     0.748294994000     0          
H2       H      0.995079994000     0.248294994000     0.788729995500     0          
C1       C      0.565009996500     0.065009996500     0.766384989000     0          
N1       N      0.552014999000     0.101175003000     0.750000000000     0          
N1       N      0.601175003000     0.052014999000     0.750000000000     0          
C2       C      0.581699997000     0.111644998000     0.721605003000     0          
C2       C      0.611644998000     0.081699997000     0.721605003000     0          
C3       C      0.542125001550     0.042125001550     0.798750013000     0          
H1       H      0.639510005500     0.079460002500     0.703484997000     0          
H1       H      0.579460002500     0.139510005500     0.703484997000     0          
H2       H      0.552795000500     0.052795000500     0.830350011500     0          
H2       H      0.507814999650     0.048250000900     0.795329988000     0          
H2       H      0.548250000900     0.007814999650     0.795329988000     0          
C1       C      0.815010011000     0.315010011000     0.983615011000     0          
N1       N      0.802015006500     0.351175010000     0.500000000000     0          
N1       N      0.851175010000     0.302015006500     0.500000000000     0          
C2       C      0.831699997000     0.361645013000     0.528395000850     0          
C2       C      0.861645013000     0.331699997000     0.528395000850     0          
C3       C      0.792124986500     0.292124986500     0.951249987000     0          
H1       H      0.889510005500     0.329459995000     0.546514999100     0          
H1       H      0.829459995000     0.389510005500     0.546514999100     0          
H2       H      0.769780010000     0.269780010000     0.966340005500     0          
H2       H      0.774325013000     0.314759999500     0.931324988500     0          
H2       H      0.814759999500     0.274325013000     0.931324988500     0          
C1       C      0.733614996000     0.065009996500     0.934989989000     0          
N1       N      0.750000000000     0.052014999000     0.898824990000     0          
N1       N      0.750000000000     0.101175003000     0.947984993500     0          
C2       C      0.778394997000     0.081699997000     0.888354987000     0          
C2       C      0.778394997000     0.111644998000     0.918300003000     0          
C3       C      0.701250002000     0.042125001550     0.957875013500     0          
H1       H      0.796514988000     0.139510005500     0.920540005000     0          
H1       H      0.796514988000     0.079460002500     0.860489994500     0          
H2       H      0.669650003500     0.052795000500     0.947205007000     0          
H2       H      0.704669997000     0.007814999650     0.951750010500     0          
H2       H      0.704669997000     0.048250000900     0.992184996500     0          
C1       C      0.979930013500     0.318405002500     0.681594997500     0          
N1       N      0.500000000000     0.302015006500     0.648825004500     0          
N1       N      0.500000000000     0.351175010000     0.697984993500     0          
C2       C      0.534775000050     0.325819999000     0.644235000000     0          
C2       C      0.534775000050     0.355765015000     0.674180001000     0          
C3       C      0.940295011000     0.302219987000     0.697779998000     0          
H1       H      0.556965001000     0.379875004500     0.680169999500     0          
H1       H      0.556965001000     0.319830000500     0.620125003000     0          
H2       H      0.913679987000     0.318309992500     0.681690007500     0          
H2       H      0.938439995000     0.267764985500     0.691795006500     0          
H2       H      0.938439995000     0.308205008500     0.732234999500     0          
Zn       Zn     0.625000000000     0.750000000000     0.000000000000     0          
Zn       Zn     0.875000000000     0.500000000000     0.250000000000     0          
Zn       Zn     0.625000000000     0.500000000000     0.250000000000     0          
Zn       Zn     0.875000000000     0.750000000000     0.000000000000     0          
Zn       Zn     0.500000000000     0.625000000000     0.250000000000     0          
Zn       Zn     0.750000000000     0.875000000000     0.000000000000     0          
Zn       Zn     0.750000000000     0.500000000000     0.125000000000     0          
Zn       Zn     0.500000000000     0.750000000000     0.375000000000     0          
Zn       Zn     0.750000000000     0.625000000000     0.000000000000     0          
Zn       Zn     0.500000000000     0.875000000000     0.250000000000     0          
Zn       Zn     0.500000000000     0.750000000000     0.125000000000     0          
Zn       Zn     0.750000000000     0.500000000000     0.375000000000     0          
C1       C      0.815010011000     0.983615011000     0.184990003500     0          
N1       N      0.802015006500     0.500000000000     0.148825004500     0          
N1       N      0.851175010000     0.500000000000     0.197984993500     0          
C2       C      0.831699997000     0.528395000850     0.138355002000     0          
C2       C      0.861645013000     0.528395000850     0.168300003000     0          
C3       C      0.792124986500     0.951249987000     0.207874998500     0          
H1       H      0.889510005500     0.546514999100     0.170540005000     0          
H1       H      0.829459995000     0.546514999100     0.110490001500     0          
H2       H      0.769780010000     0.966340005500     0.230220005000     0          
H2       H      0.774325013000     0.931324988500     0.185240000500     0          
H2       H      0.814759999500     0.931324988500     0.225675001500     0          
C1       C      0.568405002500     0.729929998500     0.431594997500     0          
N1       N      0.552014999000     0.750000000000     0.398824990000     0          
N1       N      0.601175003000     0.750000000000     0.447984993500     0          
C2       C      0.575819999000     0.784774989000     0.394234985000     0          
C2       C      0.605765000000     0.784774989000     0.424180001000     0          
C3       C      0.552220002000     0.690294996000     0.447780013000     0          
H1       H      0.629875004500     0.806964993500     0.430169999500     0          
H1       H      0.569830000500     0.806964993500     0.370124995500     0          
H2       H      0.527875000600     0.696695000000     0.472124994000     0          
H2       H      0.537985000750     0.671930000000     0.421579987000     0          
H2       H      0.578419998500     0.671930000000     0.462015003000     0          
C1       C      0.684990003500     0.516385000200     0.184990003500     0          
N1       N      0.697984993500     0.500000000000     0.148825004500     0          
N1       N      0.648825004500     0.500000000000     0.197984993500     0          
C2       C      0.668300003000     0.971605003000     0.138355002000     0          
C2       C      0.638355002000     0.971605003000     0.168300003000     0          
C3       C      0.707874998500     0.548749998200     0.207874998500     0          
H1       H      0.610490001500     0.953485012000     0.170540005000     0          
H1       H      0.670540005000     0.953485012000     0.110490001500     0          
H2       H      0.730220005000     0.533659998350     0.230220005000     0          
H2       H      0.725675001500     0.568674996500     0.185240000500     0          
H2       H      0.685240000500     0.568674996500     0.225675001500     0          
C1       C      0.931594997500     0.729929998500     0.431594997500     0          
N1       N      0.947984993500     0.750000000000     0.398824990000     0          
N1       N      0.898824990000     0.750000000000     0.447984993500     0          
C2       C      0.924180001000     0.784774989000     0.394234985000     0          
C2       C      0.894234985000     0.784774989000     0.424180001000     0          
C3       C      0.947780013000     0.690294996000     0.447780013000     0          
H1       H      0.870124995500     0.806964993500     0.430169999500     0          
H1       H      0.930169999500     0.806964993500     0.370124995500     0          
H2       H      0.931690007500     0.663680002000     0.431690007500     0          
H2       H      0.982235014500     0.688439995000     0.441794991500     0          
H2       H      0.941794991500     0.688439995000     0.482235014500     0          
C1       C      0.560770001500     0.744004994500     0.060770001500     0          
N1       N      0.552014999000     0.750000000000     0.101175003000     0          
N1       N      0.601175003000     0.750000000000     0.052014999000     0          
C2       C      0.589050002500     0.760394990500     0.118989996500     0          
C2       C      0.618989996500     0.760394990500     0.089050002500     0          
C3       C      0.529504999500     0.732154995000     0.029504999500     0          
H1       H      0.651545003000     0.767024994000     0.091499999000     0          
H1       H      0.591499999000     0.767024994000     0.151545003000     0          
H2       H      0.527574999250     0.697245002000     0.027574999250     0          
H2       H      0.998295009000     0.745079994000     0.038729999200     0          
H2       H      0.538729999200     0.745079994000     0.498295009000     0          
C1       C      0.812404990000     0.511584999950     0.312404990000     0          
N1       N      0.802015006500     0.500000000000     0.351175010000     0          
N1       N      0.851175010000     0.500000000000     0.302015006500     0          
C2       C      0.836214989500     0.979925006500     0.366154998500     0          
C2       C      0.866154998500     0.979925006500     0.336214989500     0          
C3       C      0.784375012000     0.534469999350     0.284375012000     0          
H1       H      0.896899998000     0.967110008000     0.336854994500     0          
H1       H      0.836854994500     0.967110008000     0.396899998000     0          
H2       H      0.765554994500     0.511714999550     0.265554994500     0          
H2       H      0.762849986500     0.554604999500     0.303285002500     0          
H2       H      0.803285002500     0.554604999500     0.262849986500     0          
C1       C      0.934989989000     0.766384989000     0.065009996500     0          
N1       N      0.947984993500     0.750000000000     0.101175003000     0          
N1       N      0.898824990000     0.750000000000     0.052014999000     0          
C2       C      0.918300003000     0.721605003000     0.111644998000     0          
C2       C      0.888354987000     0.721605003000     0.081699997000     0          
C3       C      0.957875013500     0.798750013000     0.042125001550     0          
H1       H      0.860489994500     0.703484997000     0.079460002500     0          
H1       H      0.920540005000     0.703484997000     0.139510005500     0          
H2       H      0.947205007000     0.830350011500     0.052795000500     0          
H2       H      0.992184996500     0.795329988000     0.048250000900     0          
H2       H      0.951750010500     0.795329988000     0.007814999650     0          
C1       C      0.684990003500     0.983615011000     0.315010011000     0          
N1       N      0.697984993500     0.500000000000     0.351175010000     0          
N1       N      0.648825004500     0.500000000000     0.302015006500     0          
C2       C      0.668300003000     0.528395000850     0.361645013000     0          
C2       C      0.638355002000     0.528395000850     0.331699997000     0          
C3       C      0.707874998500     0.951249987000     0.292124986500     0          
H1       H      0.610490001500     0.546514999100     0.329459995000     0          
H1       H      0.670540005000     0.546514999100     0.389510005500     0          
H2       H      0.730220005000     0.966340005500     0.269780010000     0          
H2       H      0.725675001500     0.931324988500     0.314759999500     0          
H2       H      0.685240000500     0.931324988500     0.274325013000     0          
C1       C      0.687594995000     0.812404990000     0.011584999950     0          
N1       N      0.697984993500     0.851175010000     0.000000000000     0          
N1       N      0.648825004500     0.802015006500     0.000000000000     0          
C2       C      0.663784995500     0.866154998500     0.479925006500     0          
C2       C      0.633845001500     0.836214989500     0.479925006500     0          
C3       C      0.715625003000     0.784375012000     0.034469999350     0          
H1       H      0.603100002000     0.836854994500     0.467110008000     0          
H1       H      0.663145005500     0.896899998000     0.467110008000     0          
H2       H      0.734445005500     0.765554994500     0.011714999550     0          
H2       H      0.737149998500     0.803285002500     0.054604999500     0          
H2       H      0.696714997500     0.762849986500     0.054604999500     0          
C1       C      0.937595010000     0.562405001500     0.238415003000     0          
N1       N      0.947984993500     0.601175003000     0.250000000000     0          
N1       N      0.898824990000     0.552014999000     0.250000000000     0          
C2       C      0.913785010500     0.616154998500     0.270074993500     0          
C2       C      0.883845001500     0.586214997000     0.270074993500     0          
C3       C      0.965624988000     0.534375000750     0.215529993000     0          
H1       H      0.853100002000     0.586855001500     0.282889992000     0          
H1       H      0.913145005500     0.646899998000     0.282889992000     0          
H2       H      0.961100012000     0.538899999100     0.181099996000     0          
H2       H      0.998825013500     0.541609998800     0.223989993500     0          
H2       H      0.958389997500     0.501174999985     0.223989993500     0          
C1       C      0.520069999600     0.681594997500     0.318405002500     0          
N1       N      0.500000000000     0.697984993500     0.351175010000     0          
N1       N      0.500000000000     0.648825004500     0.302015006500     0          
C2       C      0.965225011000     0.674180001000     0.355765015000     0          
C2       C      0.965225011000     0.644235000000     0.325819999000     0          
C3       C      0.559705000500     0.697779998000     0.302219987000     0          
H1       H      0.943035006500     0.620125003000     0.319830000500     0          
H1       H      0.943035006500     0.680169999500     0.379875004500     0          
H2       H      0.553305000000     0.722124994000     0.277875006000     0          
H2       H      0.578070000000     0.712015003000     0.328420013000     0          
H2       H      0.578070000000     0.671580001500     0.287984997000     0          
C1       C      0.733614996000     0.934989989000     0.065009996500     0          
N1       N      0.750000000000     0.947984993500     0.101175003000     0          
N1       N      0.750000000000     0.898824990000     0.052014999000     0          
C2       C      0.778394997000     0.918300003000     0.111644998000     0          
C2       C      0.778394997000     0.888354987000     0.081699997000     0          
C3       C      0.701250002000     0.957875013500     0.042125001550     0          
H1       H      0.796514988000     0.860489994500     0.079460002500     0          
H1       H      0.796514988000     0.920540005000     0.139510005500     0          
H2       H      0.669650003500     0.947205007000     0.052795000500     0          
H2       H      0.704669997000     0.992184996500     0.048250000900     0          
H2       H      0.704669997000     0.951750010500     0.007814999650     0          
C1       C      0.565009996500     0.934989989000     0.233614996000     0          
N1       N      0.552014999000     0.898824990000     0.250000000000     0          
N1       N      0.601175003000     0.947984993500     0.250000000000     0          
C2       C      0.581699997000     0.888354987000     0.278394997000     0          
C2       C      0.611644998000     0.918300003000     0.278394997000     0          
C3       C      0.542125001550     0.957875013500     0.201250002000     0          
H1       H      0.639510005500     0.920540005000     0.296514988000     0          
H1       H      0.579460002500     0.860489994500     0.296514988000     0          
H2       H      0.552795000500     0.947205007000     0.169650003500     0          
H2       H      0.507814999650     0.951750010500     0.204669997000     0          
H2       H      0.548250000900     0.992184996500     0.204669997000     0          
C1       C      0.815010011000     0.684990003500     0.016385000200     0          
N1       N      0.802015006500     0.648825004500     0.000000000000     0          
N1       N      0.851175010000     0.697984993500     0.000000000000     0          
C2       C      0.831699997000     0.638355002000     0.471605003000     0          
C2       C      0.861645013000     0.668300003000     0.471605003000     0          
C3       C      0.792124986500     0.707874998500     0.048749998200     0          
H1       H      0.889510005500     0.670540005000     0.453485012000     0          
H1       H      0.829459995000     0.610490001500     0.453485012000     0          
H2       H      0.769780010000     0.730220005000     0.033659998350     0          
H2       H      0.774325013000     0.685240000500     0.068674996500     0          
H2       H      0.814759999500     0.725675001500     0.068674996500     0          
C1       C      0.505994999800     0.689229995000     0.189229995000     0          
N1       N      0.500000000000     0.697984993500     0.148825004500     0          
N1       N      0.500000000000     0.648825004500     0.197984993500     0          
C2       C      0.989605009500     0.660950005000     0.131009996000     0          
C2       C      0.989605009500     0.631009996000     0.160950005000     0          
C3       C      0.517844999200     0.720495000500     0.220495000500     0          
H1       H      0.982975006000     0.598454997000     0.158500001000     0          
H1       H      0.982975006000     0.658500001000     0.098454997000     0          
H2       H      0.552754998000     0.722424999000     0.222424999000     0          
H2       H      0.504920000210     0.751704991000     0.211270004500     0          
H2       H      0.504920000210     0.711270004500     0.251704991000     0          
C1       C      0.766384989000     0.934989989000     0.434989989000     0          
N1       N      0.750000000000     0.947984993500     0.398824990000     0          
N1       N      0.750000000000     0.898824990000     0.447984993500     0          
C2       C      0.721605003000     0.918300003000     0.388354987000     0          
C2       C      0.721605003000     0.888354987000     0.418300003000     0          
C3       C      0.798750013000     0.957875013500     0.457875013500     0          
H1       H      0.703484997000     0.860489994500     0.420540005000     0          
H1       H      0.703484997000     0.920540005000     0.360489994500     0          
H2       H      0.830350011500     0.947205007000     0.447205007000     0          
H2       H      0.795329988000     0.992184996500     0.451750010500     0          
H2       H      0.795329988000     0.951750010500     0.492184996500     0          
C1       C      0.684990003500     0.684990003500     0.483615011000     0          
N1       N      0.697984993500     0.648825004500     0.000000000000     0          
N1       N      0.648825004500     0.697984993500     0.000000000000     0          
C2       C      0.668300003000     0.638355002000     0.028395000850     0          
C2       C      0.638355002000     0.668300003000     0.028395000850     0          
C3       C      0.707874998500     0.707874998500     0.451249987000     0          
H1       H      0.610490001500     0.670540005000     0.046514999100     0          
H1       H      0.670540005000     0.610490001500     0.046514999100     0          
H2       H      0.730220005000     0.730220005000     0.466340005500     0          
H2       H      0.725675001500     0.685240000500     0.431324988500     0          
H2       H      0.685240000500     0.725675001500     0.431324988500     0          
C1       C      0.931594997500     0.931594997500     0.270069986500     0          
N1       N      0.947984993500     0.898824990000     0.250000000000     0          
N1       N      0.898824990000     0.947984993500     0.250000000000     0          
C2       C      0.924180001000     0.894234985000     0.215224996000     0          
C2       C      0.894234985000     0.924180001000     0.215224996000     0          
C3       C      0.947780013000     0.947780013000     0.309704989000     0          
H1       H      0.870124995500     0.930169999500     0.193035006500     0          
H1       H      0.930169999500     0.870124995500     0.193035006500     0          
H2       H      0.931690007500     0.931690007500     0.336320013000     0          
H2       H      0.982235014500     0.941794991500     0.311560005000     0          
H2       H      0.941794991500     0.982235014500     0.311560005000     0          
C1       C      0.766384989000     0.565009996500     0.065009996500     0          
N1       N      0.750000000000     0.601175003000     0.052014999000     0          
N1       N      0.750000000000     0.552014999000     0.101175003000     0          
C2       C      0.721605003000     0.611644998000     0.081699997000     0          
C2       C      0.721605003000     0.581699997000     0.111644998000     0          
C3       C      0.798750013000     0.542125001550     0.042125001550     0          
H1       H      0.703484997000     0.579460002500     0.139510005500     0          
H1       H      0.703484997000     0.639510005500     0.079460002500     0          
H2       H      0.783659994500     0.519780000650     0.019780000650     0          
H2       H      0.818675011500     0.564759999500     0.024325000100     0          
H2       H      0.818675011500     0.524325000100     0.064759999500     0          
C1       C      0.994004994500     0.810770005000     0.310770005000     0          
N1       N      0.500000000000     0.851175010000     0.302015006500     0          
N1       N      0.500000000000     0.802015006500     0.351175010000     0          
C2       C      0.510394999750     0.868990004000     0.339049995000     0          
C2       C      0.510394999750     0.839049995000     0.368990004000     0          
C3       C      0.982154995000     0.779505014500     0.279505014500     0          
H1       H      0.517024999500     0.841500014000     0.401544988000     0          
H1       H      0.517024999500     0.901544988000     0.341500014000     0          
H2       H      0.947245002000     0.777574986000     0.277574986000     0          
H2       H      0.995079994000     0.788729995500     0.248294994000     0          
H2       H      0.995079994000     0.748294994000     0.288729995500     0          
C1       C      0.565009996500     0.565009996500     0.266384989000     0          
N1       N      0.552014999000     0.601175003000     0.250000000000     0          
N1       N      0.601175003000     0.552014999000     0.250000000000     0          
C2       C      0.581699997000     0.611644998000     0.221605003000     0          
C2       C      0.611644998000     0.581699997000     0.221605003000     0          
C3       C      0.542125001550     0.542125001550     0.298750013000     0          
H1       H      0.639510005500     0.579460002500     0.203484997000     0          
H1       H      0.579460002500     0.639510005500     0.203484997000     0          
H2       H      0.552795000500     0.552795000500     0.330350011500     0          
H2       H      0.507814999650     0.548250000900     0.295329988000     0          
H2       H      0.548250000900     0.507814999650     0.295329988000     0          
C1       C      0.815010011000     0.815010011000     0.483615011000     0          
N1       N      0.802015006500     0.851175010000     0.000000000000     0          
N1       N      0.851175010000     0.802015006500     0.000000000000     0          
C2       C      0.831699997000     0.861645013000     0.028395000850     0          
C2       C      0.861645013000     0.831699997000     0.028395000850     0          
C3       C      0.792124986500     0.792124986500     0.451249987000     0          
H1       H      0.889510005500     0.829459995000     0.046514999100     0          
H1       H      0.829459995000     0.889510005500     0.046514999100     0          
H2       H      0.769780010000     0.769780010000     0.466340005500     0          
H2       H      0.774325013000     0.814759999500     0.431324988500     0          
H2       H      0.814759999500     0.774325013000     0.431324988500     0          
C1       C      0.733614996000     0.565009996500     0.434989989000     0          
N1       N      0.750000000000     0.552014999000     0.398824990000     0          
N1       N      0.750000000000     0.601175003000     0.447984993500     0          
C2       C      0.778394997000     0.581699997000     0.388354987000     0          
C2       C      0.778394997000     0.611644998000     0.418300003000     0          
C3       C      0.701250002000     0.542125001550     0.457875013500     0          
H1       H      0.796514988000     0.639510005500     0.420540005000     0          
H1       H      0.796514988000     0.579460002500     0.360489994500     0          
H2       H      0.669650003500     0.552795000500     0.447205007000     0          
H2       H      0.704669997000     0.507814999650     0.451750010500     0          
H2       H      0.704669997000     0.548250000900     0.492184996500     0          
C1       C      0.979930013500     0.818405002500     0.181594997500     0          
N1       N      0.500000000000     0.802015006500     0.148825004500     0          
N1       N      0.500000000000     0.851175010000     0.197984993500     0          
C2       C      0.534775000050     0.825819999000     0.144235000000     0          
C2       C      0.534775000050     0.855765015000     0.174180001000     0          
C3       C      0.940295011000     0.802219987000     0.197779998000     0          
H1       H      0.556965001000     0.879875004500     0.180169999500     0          
H1       H      0.556965001000     0.819830000500     0.120125003000     0          
H2       H      0.913679987000     0.818309992500     0.181690007500     0          
H2       H      0.938439995000     0.767764985500     0.191795006500     0          
H2       H      0.938439995000     0.808205008500     0.232234999500     0          
Zn       Zn     0.625000000000     0.750000000000     0.500000000000     0          
Zn       Zn     0.875000000000     0.500000000000     0.750000000000     0          
Zn       Zn     0.625000000000     0.500000000000     0.750000000000     0          
Zn       Zn     0.875000000000     0.750000000000     0.500000000000     0          
Zn       Zn     0.500000000000     0.625000000000     0.750000000000     0          
Zn       Zn     0.750000000000     0.875000000000     0.500000000000     0          
Zn       Zn     0.750000000000     0.500000000000     0.625000000000     0          
Zn       Zn     0.500000000000     0.750000000000     0.875000000000     0          
Zn       Zn     0.750000000000     0.625000000000     0.500000000000     0          
Zn       Zn     0.500000000000     0.875000000000     0.750000000000     0          
Zn       Zn     0.500000000000     0.750000000000     0.625000000000     0          
Zn       Zn     0.750000000000     0.500000000000     0.875000000000     0          
C1       C      0.815010011000     0.983615011000     0.684990003500     0          
N1       N      0.802015006500     0.500000000000     0.648825004500     0          
N1       N      0.851175010000     0.500000000000     0.697984993500     0          
C2       C      0.831699997000     0.528395000850     0.638355002000     0          
C2       C      0.861645013000     0.528395000850     0.668300003000     0          
C3       C      0.792124986500     0.951249987000     0.707874998500     0          
H1       H      0.889510005500     0.546514999100     0.670540005000     0          
H1       H      0.829459995000     0.546514999100     0.610490001500     0          
H2       H      0.769780010000     0.966340005500     0.730220005000     0          
H2       H      0.774325013000     0.931324988500     0.685240000500     0          
H2       H      0.814759999500     0.931324988500     0.725675001500     0          
C1       C      0.568405002500     0.729929998500     0.931594997500     0          
N1       N      0.552014999000     0.750000000000     0.898824990000     0          
N1       N      0.601175003000     0.750000000000     0.947984993500     0          
C2       C      0.575819999000     0.784774989000     0.894234985000     0          
C2       C      0.605765000000     0.784774989000     0.924180001000     0          
C3       C      0.552220002000     0.690294996000     0.947780013000     0          
H1       H      0.629875004500     0.806964993500     0.930169999500     0          
H1       H      0.569830000500     0.806964993500     0.870124995500     0          
H2       H      0.527875000600     0.696695000000     0.972124994000     0          
H2       H      0.537985000750     0.671930000000     0.921579987000     0          
H2       H      0.578419998500     0.671930000000     0.962015003000     0          
C1       C      0.684990003500     0.516385000200     0.684990003500     0          
N1       N      0.697984993500     0.500000000000     0.648825004500     0          
N1       N      0.648825004500     0.500000000000     0.697984993500     0          
C2       C      0.668300003000     0.971605003000     0.638355002000     0          
C2       C      0.638355002000     0.971605003000     0.668300003000     0          
C3       C      0.707874998500     0.548749998200     0.707874998500     0          
H1       H      0.610490001500     0.953485012000     0.670540005000     0          
H1       H      0.670540005000     0.953485012000     0.610490001500     0          
H2       H      0.730220005000     0.533659998350     0.730220005000     0          
H2       H      0.725675001500     0.568674996500     0.685240000500     0          
H2       H      0.685240000500     0.568674996500     0.725675001500     0          
C1       C      0.931594997500     0.729929998500     0.931594997500     0          
N1       N      0.947984993500     0.750000000000     0.898824990000     0          
N1       N      0.898824990000     0.750000000000     0.947984993500     0          
C2       C      0.924180001000     0.784774989000     0.894234985000     0          
C2       C      0.894234985000     0.784774989000     0.924180001000     0          
C3       C      0.947780013000     0.690294996000     0.947780013000     0          
H1       H      0.870124995500     0.806964993500     0.930169999500     0          
H1       H      0.930169999500     0.806964993500     0.870124995500     0          
H2       H      0.931690007500     0.663680002000     0.931690007500     0          
H2       H      0.982235014500     0.688439995000     0.941794991500     0          
H2       H      0.941794991500     0.688439995000     0.982235014500     0          
C1       C      0.560770001500     0.744004994500     0.560770001500     0          
N1       N      0.552014999000     0.750000000000     0.601175003000     0          
N1       N      0.601175003000     0.750000000000     0.552014999000     0          
C2       C      0.589050002500     0.760394990500     0.618989996500     0          
C2       C      0.618989996500     0.760394990500     0.589050002500     0          
C3       C      0.529504999500     0.732154995000     0.529504999500     0          
H1       H      0.651545003000     0.767024994000     0.591499999000     0          
H1       H      0.591499999000     0.767024994000     0.651545003000     0          
H2       H      0.527574999250     0.697245002000     0.527574999250     0          
H2       H      0.998295009000     0.745079994000     0.538729999200     0          
H2       H      0.538729999200     0.745079994000     0.998295009000     0          
C1       C      0.812404990000     0.511584999950     0.812404990000     0          
N1       N      0.802015006500     0.500000000000     0.851175010000     0          
N1       N      0.851175010000     0.500000000000     0.802015006500     0          
C2       C      0.836214989500     0.979925006500     0.866154998500     0          
C2       C      0.866154998500     0.979925006500     0.836214989500     0          
C3       C      0.784375012000     0.534469999350     0.784375012000     0          
H1       H      0.896899998000     0.967110008000     0.836854994500     0          
H1       H      0.836854994500     0.967110008000     0.896899998000     0          
H2       H      0.765554994500     0.511714999550     0.765554994500     0          
H2       H      0.762849986500     0.554604999500     0.803285002500     0          
H2       H      0.803285002500     0.554604999500     0.762849986500     0          
C1       C      0.934989989000     0.766384989000     0.565009996500     0          
N1       N      0.947984993500     0.750000000000     0.601175003000     0          
N1       N      0.898824990000     0.750000000000     0.552014999000     0          
C2       C      0.918300003000     0.721605003000     0.611644998000     0          
C2       C      0.888354987000     0.721605003000     0.581699997000     0          
C3       C      0.957875013500     0.798750013000     0.542125001550     0          
H1       H      0.860489994500     0.703484997000     0.579460002500     0          
H1       H      0.920540005000     0.703484997000     0.639510005500     0          
H2       H      0.947205007000     0.830350011500     0.552795000500     0          
H2       H      0.992184996500     0.795329988000     0.548250000900     0          
H2       H      0.951750010500     0.795329988000     0.507814999650     0          
C1       C      0.684990003500     0.983615011000     0.815010011000     0          
N1       N      0.697984993500     0.500000000000     0.851175010000     0          
N1       N      0.648825004500     0.500000000000     0.802015006500     0          
C2       C      0.668300003000     0.528395000850     0.861645013000     0          
C2       C      0.638355002000     0.528395000850     0.831699997000     0          
C3       C      0.707874998500     0.951249987000     0.792124986500     0          
H1       H      0.610490001500     0.546514999100     0.829459995000     0          
H1       H      0.670540005000     0.546514999100     0.889510005500     0          
H2       H      0.730220005000     0.966340005500     0.769780010000     0          
H2       H      0.725675001500     0.931324988500     0.814759999500     0          
H2       H      0.685240000500     0.931324988500     0.774325013000     0          
C1       C      0.687594995000     0.812404990000     0.511584999950     0          
N1       N      0.697984993500     0.851175010000     0.500000000000     0          
N1       N      0.648825004500     0.802015006500     0.500000000000     0          
C2       C      0.663784995500     0.866154998500     0.979925006500     0          
C2       C      0.633845001500     0.836214989500     0.979925006500     0          
C3       C      0.715625003000     0.784375012000     0.534469999350     0          
H1       H      0.603100002000     0.836854994500     0.967110008000     0          
H1       H      0.663145005500     0.896899998000     0.967110008000     0          
H2       H      0.734445005500     0.765554994500     0.511714999550     0          
H2       H      0.737149998500     0.803285002500     0.554604999500     0          
H2       H      0.696714997500     0.762849986500     0.554604999500     0          
C1       C      0.937595010000     0.562405001500     0.738415003000     0          
N1       N      0.947984993500     0.601175003000     0.750000000000     0          
N1       N      0.898824990000     0.552014999000     0.750000000000     0          
C2       C      0.913785010500     0.616154998500     0.770074993500     0          
C2       C      0.883845001500     0.586214997000     0.770074993500     0          
C3       C      0.965624988000     0.534375000750     0.715529993000     0          
H1       H      0.853100002000     0.586855001500     0.782889992000     0          
H1       H      0.913145005500     0.646899998000     0.782889992000     0          
H2       H      0.961100012000     0.538899999100     0.681099996000     0          
H2       H      0.998825013500     0.541609998800     0.723989993500     0          
H2       H      0.958389997500     0.501174999985     0.723989993500     0          
C1       C      0.520069999600     0.681594997500     0.818405002500     0          
N1       N      0.500000000000     0.697984993500     0.851175010000     0          
N1       N      0.500000000000     0.648825004500     0.802015006500     0          
C2       C      0.965225011000     0.674180001000     0.855765015000     0          
C2       C      0.965225011000     0.644235000000     0.825819999000     0          
C3       C      0.559705000500     0.697779998000     0.802219987000     0          
H1       H      0.943035006500     0.620125003000     0.819830000500     0          
H1       H      0.943035006500     0.680169999500     0.879875004500     0          
H2       H      0.553305000000     0.722124994000     0.777875006000     0          
H2       H      0.578070000000     0.712015003000     0.828420013000     0          
H2       H      0.578070000000     0.671580001500     0.787984997000     0          
C1       C      0.733614996000     0.934989989000     0.565009996500     0          
N1       N      0.750000000000     0.947984993500     0.601175003000     0          
N1       N      0.750000000000     0.898824990000     0.552014999000     0          
C2       C      0.778394997000     0.918300003000     0.611644998000     0          
C2       C      0.778394997000     0.888354987000     0.581699997000     0          
C3       C      0.701250002000     0.957875013500     0.542125001550     0          
H1       H      0.796514988000     0.860489994500     0.579460002500     0          
H1       H      0.796514988000     0.920540005000     0.639510005500     0          
H2       H      0.669650003500     0.947205007000     0.552795000500     0          
H2       H      0.704669997000     0.992184996500     0.548250000900     0          
H2       H      0.704669997000     0.951750010500     0.507814999650     0          
C1       C      0.565009996500     0.934989989000     0.733614996000     0          
N1       N      0.552014999000     0.898824990000     0.750000000000     0          
N1       N      0.601175003000     0.947984993500     0.750000000000     0          
C2       C      0.581699997000     0.888354987000     0.778394997000     0          
C2       C      0.611644998000     0.918300003000     0.778394997000     0          
C3       C      0.542125001550     0.957875013500     0.701250002000     0          
H1       H      0.639510005500     0.920540005000     0.796514988000     0          
H1       H      0.579460002500     0.860489994500     0.796514988000     0          
H2       H      0.552795000500     0.947205007000     0.669650003500     0          
H2       H      0.507814999650     0.951750010500     0.704669997000     0          
H2       H      0.548250000900     0.992184996500     0.704669997000     0          
C1       C      0.815010011000     0.684990003500     0.516385000200     0          
N1       N      0.802015006500     0.648825004500     0.500000000000     0          
N1       N      0.851175010000     0.697984993500     0.500000000000     0          
C2       C      0.831699997000     0.638355002000     0.971605003000     0          
C2       C      0.861645013000     0.668300003000     0.971605003000     0          
C3       C      0.792124986500     0.707874998500     0.548749998200     0          
H1       H      0.889510005500     0.670540005000     0.953485012000     0          
H1       H      0.829459995000     0.610490001500     0.953485012000     0          
H2       H      0.769780010000     0.730220005000     0.533659998350     0          
H2       H      0.774325013000     0.685240000500     0.568674996500     0          
H2       H      0.814759999500     0.725675001500     0.568674996500     0          
C1       C      0.505994999800     0.689229995000     0.689229995000     0          
N1       N      0.500000000000     0.697984993500     0.648825004500     0          
N1       N      0.500000000000     0.648825004500     0.697984993500     0          
C2       C      0.989605009500     0.660950005000     0.631009996000     0          
C2       C      0.989605009500     0.631009996000     0.660950005000     0          
C3       C      0.517844999200     0.720495000500     0.720495000500     0          
H1       H      0.982975006000     0.598454997000     0.658500001000     0          
H1       H      0.982975006000     0.658500001000     0.598454997000     0          
H2       H      0.552754998000     0.722424999000     0.722424999000     0          
H2       H      0.504920000210     0.751704991000     0.711270004500     0          
H2       H      0.504920000210     0.711270004500     0.751704991000     0          
C1       C      0.766384989000     0.934989989000     0.934989989000     0          
N1       N      0.750000000000     0.947984993500     0.898824990000     0          
N1       N      0.750000000000     0.898824990000     0.947984993500     0          
C2       C      0.721605003000     0.918300003000     0.888354987000     0          
C2       C      0.721605003000     0.888354987000     0.918300003000     0          
C3       C      0.798750013000     0.957875013500     0.957875013500     0          
H1       H      0.703484997000     0.860489994500     0.920540005000     0          
H1       H      0.703484997000     0.920540005000     0.860489994500     0          
H2       H      0.830350011500     0.947205007000     0.947205007000     0          
H2       H      0.795329988000     0.992184996500     0.951750010500     0          
H2       H      0.795329988000     0.951750010500     0.992184996500     0          
C1       C      0.684990003500     0.684990003500     0.983615011000     0          
N1       N      0.697984993500     0.648825004500     0.500000000000     0          
N1       N      0.648825004500     0.697984993500     0.500000000000     0          
C2       C      0.668300003000     0.638355002000     0.528395000850     0          
C2       C      0.638355002000     0.668300003000     0.528395000850     0          
C3       C      0.707874998500     0.707874998500     0.951249987000     0          
H1       H      0.610490001500     0.670540005000     0.546514999100     0          
H1       H      0.670540005000     0.610490001500     0.546514999100     0          
H2       H      0.730220005000     0.730220005000     0.966340005500     0          
H2       H      0.725675001500     0.685240000500     0.931324988500     0          
H2       H      0.685240000500     0.725675001500     0.931324988500     0          
C1       C      0.931594997500     0.931594997500     0.770069986500     0          
N1       N      0.947984993500     0.898824990000     0.750000000000     0          
N1       N      0.898824990000     0.947984993500     0.750000000000     0          
C2       C      0.924180001000     0.894234985000     0.715224996000     0          
C2       C      0.894234985000     0.924180001000     0.715224996000     0          
C3       C      0.947780013000     0.947780013000     0.809704989000     0          
H1       H      0.870124995500     0.930169999500     0.693035006500     0          
H1       H      0.930169999500     0.870124995500     0.693035006500     0          
H2       H      0.931690007500     0.931690007500     0.836320013000     0          
H2       H      0.982235014500     0.941794991500     0.811560005000     0          
H2       H      0.941794991500     0.982235014500     0.811560005000     0          
C1       C      0.766384989000     0.565009996500     0.565009996500     0          
N1       N      0.750000000000     0.601175003000     0.552014999000     0          
N1       N      0.750000000000     0.552014999000     0.601175003000     0          
C2       C      0.721605003000     0.611644998000     0.581699997000     0          
C2       C      0.721605003000     0.581699997000     0.611644998000     0          
C3       C      0.798750013000     0.542125001550     0.542125001550     0          
H1       H      0.703484997000     0.579460002500     0.639510005500     0          
H1       H      0.703484997000     0.639510005500     0.579460002500     0          
H2       H      0.783659994500     0.519780000650     0.519780000650     0          
H2       H      0.818675011500     0.564759999500     0.524325000100     0          
H2       H      0.818675011500     0.524325000100     0.564759999500     0          
C1       C      0.994004994500     0.810770005000     0.810770005000     0          
N1       N      0.500000000000     0.851175010000     0.802015006500     0          
N1       N      0.500000000000     0.802015006500     0.851175010000     0          
C2       C      0.510394999750     0.868990004000     0.839049995000     0          
C2       C      0.510394999750     0.839049995000     0.868990004000     0          
C3       C      0.982154995000     0.779505014500     0.779505014500     0          
H1       H      0.517024999500     0.841500014000     0.901544988000     0          
H1       H      0.517024999500     0.901544988000     0.841500014000     0          
H2       H      0.947245002000     0.777574986000     0.777574986000     0          
H2       H      0.995079994000     0.788729995500     0.748294994000     0          
H2       H      0.995079994000     0.748294994000     0.788729995500     0          
C1       C      0.565009996500     0.565009996500     0.766384989000     0          
N1       N      0.552014999000     0.601175003000     0.750000000000     0          
N1       N      0.601175003000     0.552014999000     0.750000000000     0          
C2       C      0.581699997000     0.611644998000     0.721605003000     0          
C2       C      0.611644998000     0.581699997000     0.721605003000     0          
C3       C      0.542125001550     0.542125001550     0.798750013000     0          
H1       H      0.639510005500     0.579460002500     0.703484997000     0          
H1       H      0.579460002500     0.639510005500     0.703484997000     0          
H2       H      0.552795000500     0.552795000500     0.830350011500     0          
H2       H      0.507814999650     0.548250000900     0.795329988000     0          
H2       H      0.548250000900     0.507814999650     0.795329988000     0          
C1       C      0.815010011000     0.815010011000     0.983615011000     0          
N1       N      0.802015006500     0.851175010000     0.500000000000     0          
N1       N      0.851175010000     0.802015006500     0.500000000000     0          
C2       C      0.831699997000     0.861645013000     0.528395000850     0          
C2       C      0.861645013000     0.831699997000     0.528395000850     0          
C3       C      0.792124986500     0.792124986500     0.951249987000     0          
H1       H      0.889510005500     0.829459995000     0.546514999100     0          
H1       H      0.829459995000     0.889510005500     0.546514999100     0          
H2       H      0.769780010000     0.769780010000     0.966340005500     0          
H2       H      0.774325013000     0.814759999500     0.931324988500     0          
H2       H      0.814759999500     0.774325013000     0.931324988500     0          
C1       C      0.733614996000     0.565009996500     0.934989989000     0          
N1       N      0.750000000000     0.552014999000     0.898824990000     0          
N1       N      0.750000000000     0.601175003000     0.947984993500     0          
C2       C      0.778394997000     0.581699997000     0.888354987000     0          
C2       C      0.778394997000     0.611644998000     0.918300003000     0          
C3       C      0.701250002000     0.542125001550     0.957875013500     0          
H1       H      0.796514988000     0.639510005500     0.920540005000     0          
H1       H      0.796514988000     0.579460002500     0.860489994500     0          
H2       H      0.669650003500     0.552795000500     0.947205007000     0          
H2       H      0.704669997000     0.507814999650     0.951750010500     0          
H2       H      0.704669997000     0.548250000900     0.992184996500     0          
C1       C      0.979930013500     0.818405002500     0.681594997500     0          
N1       N      0.500000000000     0.802015006500     0.648825004500     0          
N1       N      0.500000000000     0.851175010000     0.697984993500     0          
C2       C      0.534775000050     0.825819999000     0.644235000000     0          
C2       C      0.534775000050     0.855765015000     0.674180001000     0          
C3       C      0.940295011000     0.802219987000     0.697779998000     0          
H1       H      0.556965001000     0.879875004500     0.680169999500     0          
H1       H      0.556965001000     0.819830000500     0.620125003000     0          
H2       H      0.913679987000     0.818309992500     0.681690007500     0          
H2       H      0.938439995000     0.767764985500     0.691795006500     0          
H2       H      0.938439995000     0.808205008500     0.732234999500     0          


